Global frequency set at 1000000000000 ticks per second
gem5 Simulator System.  https://www.gem5.org
gem5 is copyrighted software; use the --copyright option for details.

gem5 version 23.1.0.0
gem5 compiled Sep 30 2025 15:11:21
gem5 started Oct  2 2025 17:35:24
gem5 executing on chirag, pid 3690
command line: /home/chira/gem5/build/X86/gem5.opt --outdir=results/experiments/compute_rob128_bpTournamentBP_l1d32kB_l21MB_iw2_cw2 configs/run_custom.py --cmd=./benchmarks/compute --options=--options=100000 --cpu-type=DerivO3CPU --rob-size=128 --bp-type=TournamentBP --l1d-size=32kB --l1i-size=32kB --l2-size=1MB --issue-width=2 --commit-width=2 --max-insts=5000000

Beginning simulation with:
  cmd = ./benchmarks/compute options='--options=100000'
  ROB=128 issue=2 commit=2 L1d=32kB L1i=32kB L2=1MB BP=TournamentBP
Exiting @ tick 5000000 because simulate() limit reached
warn: No dot file generated. Please install pydot to generate the dot file and pdf.
src/mem/dram_interface.cc:690: warn: DRAM device capacity (8192 Mbytes) does not match the address range assigned (512 Mbytes)
src/base/statistics.hh:279: warn: One of the stats is a legacy stat. Legacy stat is a stat that does not belong to any statistics::Group. Legacy stat is deprecated.
system.remote_gdb: Listening for connections on port 7000
src/sim/simulate.cc:199: info: Entering event queue @ 0.  Starting simulation...
