
---------- Begin Simulation Statistics ----------
simSeconds                                   0.002494                       # Number of seconds simulated (Second)
simTicks                                   2494195000                       # Number of ticks simulated (Tick)
finalTick                                  2494195000                       # Number of ticks from beginning of simulation (restored from checkpoints and never reset) (Tick)
simFreq                                  1000000000000                       # The number of ticks per simulated second ((Tick/Second))
hostSeconds                                     11.80                       # Real time elapsed on the host (Second)
hostTickRate                                211404509                       # The number of ticks simulated per host second (ticks/s) ((Tick/Second))
hostMemory                                     718468                       # Number of bytes of host memory used (Byte)
simInsts                                      1390852                       # Number of instructions simulated (Count)
simOps                                        2573877                       # Number of ops (including micro ops) simulated (Count)
hostInstRate                                   117885                       # Simulator instruction rate (inst/s) ((Count/Second))
hostOpRate                                     218155                       # Simulator op (including micro ops) rate (op/s) ((Count/Second))
system.clk_domain.clock                          1000                       # Clock period in ticks (Tick)
system.clk_domain.voltage_domain.voltage            1                       # Voltage in Volts (Volt)
system.cpu.numCycles                          2494196                       # Number of cpu cycles simulated (Cycle)
system.cpu.cpi                               1.793286                       # CPI: cycles per instruction (core level) ((Cycle/Count))
system.cpu.ipc                               0.557635                       # IPC: instructions per cycle (core level) ((Count/Cycle))
system.cpu.numWorkItemsStarted                      0                       # Number of work items this cpu started (Count)
system.cpu.numWorkItemsCompleted                    0                       # Number of work items this cpu completed (Count)
system.cpu.instsAdded                         2663632                       # Number of instructions added to the IQ (excludes non-spec) (Count)
system.cpu.nonSpecInstsAdded                      168                       # Number of non-speculative instructions added to the IQ (Count)
system.cpu.instsIssued                        2650628                       # Number of instructions issued (Count)
system.cpu.squashedInstsIssued                    674                       # Number of squashed instructions issued (Count)
system.cpu.squashedInstsExamined                89917                       # Number of squashed instructions iterated over during squash; mainly for profiling (Count)
system.cpu.squashedOperandsExamined            134181                       # Number of squashed operands that are examined and possibly removed from graph (Count)
system.cpu.squashedNonSpecRemoved                  78                       # Number of squashed non-spec instructions that were removed (Count)
system.cpu.numIssuedDist::samples             2473798                       # Number of insts issued each cycle (Count)
system.cpu.numIssuedDist::mean               1.071481                       # Number of insts issued each cycle (Count)
system.cpu.numIssuedDist::stdev              1.405734                       # Number of insts issued each cycle (Count)
system.cpu.numIssuedDist::underflows                0      0.00%      0.00% # Number of insts issued each cycle (Count)
system.cpu.numIssuedDist::0                   1346204     54.42%     54.42% # Number of insts issued each cycle (Count)
system.cpu.numIssuedDist::1                    362796     14.67%     69.08% # Number of insts issued each cycle (Count)
system.cpu.numIssuedDist::2                    264249     10.68%     79.77% # Number of insts issued each cycle (Count)
system.cpu.numIssuedDist::3                    242862      9.82%     89.58% # Number of insts issued each cycle (Count)
system.cpu.numIssuedDist::4                    257687     10.42%    100.00% # Number of insts issued each cycle (Count)
system.cpu.numIssuedDist::overflows                 0      0.00%    100.00% # Number of insts issued each cycle (Count)
system.cpu.numIssuedDist::min_value                 0                       # Number of insts issued each cycle (Count)
system.cpu.numIssuedDist::max_value                 4                       # Number of insts issued each cycle (Count)
system.cpu.numIssuedDist::total               2473798                       # Number of insts issued each cycle (Count)
system.cpu.statFuBusy::No_OpClass                   0                       # attempts to use FU when none available (Count)
system.cpu.statFuBusy::IntAlu                       0                       # attempts to use FU when none available (Count)
system.cpu.statFuBusy::IntMult                      0                       # attempts to use FU when none available (Count)
system.cpu.statFuBusy::IntDiv                       0                       # attempts to use FU when none available (Count)
system.cpu.statFuBusy::FloatAdd                     0                       # attempts to use FU when none available (Count)
system.cpu.statFuBusy::FloatCmp                     0                       # attempts to use FU when none available (Count)
system.cpu.statFuBusy::FloatCvt                     0                       # attempts to use FU when none available (Count)
system.cpu.statFuBusy::FloatMult                    0                       # attempts to use FU when none available (Count)
system.cpu.statFuBusy::FloatMultAcc                 0                       # attempts to use FU when none available (Count)
system.cpu.statFuBusy::FloatDiv                     0                       # attempts to use FU when none available (Count)
system.cpu.statFuBusy::FloatMisc                    0                       # attempts to use FU when none available (Count)
system.cpu.statFuBusy::FloatSqrt                    0                       # attempts to use FU when none available (Count)
system.cpu.statFuBusy::SimdAdd                      0                       # attempts to use FU when none available (Count)
system.cpu.statFuBusy::SimdAddAcc                   0                       # attempts to use FU when none available (Count)
system.cpu.statFuBusy::SimdAlu                      0                       # attempts to use FU when none available (Count)
system.cpu.statFuBusy::SimdCmp                      0                       # attempts to use FU when none available (Count)
system.cpu.statFuBusy::SimdCvt                      0                       # attempts to use FU when none available (Count)
system.cpu.statFuBusy::SimdMisc                     0                       # attempts to use FU when none available (Count)
system.cpu.statFuBusy::SimdMult                     0                       # attempts to use FU when none available (Count)
system.cpu.statFuBusy::SimdMultAcc                  0                       # attempts to use FU when none available (Count)
system.cpu.statFuBusy::SimdMatMultAcc               0                       # attempts to use FU when none available (Count)
system.cpu.statFuBusy::SimdShift                    0                       # attempts to use FU when none available (Count)
system.cpu.statFuBusy::SimdShiftAcc                 0                       # attempts to use FU when none available (Count)
system.cpu.statFuBusy::SimdDiv                      0                       # attempts to use FU when none available (Count)
system.cpu.statFuBusy::SimdSqrt                     0                       # attempts to use FU when none available (Count)
system.cpu.statFuBusy::SimdFloatAdd                 0                       # attempts to use FU when none available (Count)
system.cpu.statFuBusy::SimdFloatAlu                 0                       # attempts to use FU when none available (Count)
system.cpu.statFuBusy::SimdFloatCmp                 0                       # attempts to use FU when none available (Count)
system.cpu.statFuBusy::SimdFloatCvt                 0                       # attempts to use FU when none available (Count)
system.cpu.statFuBusy::SimdFloatDiv                 0                       # attempts to use FU when none available (Count)
system.cpu.statFuBusy::SimdFloatMisc                0                       # attempts to use FU when none available (Count)
system.cpu.statFuBusy::SimdFloatMult                0                       # attempts to use FU when none available (Count)
system.cpu.statFuBusy::SimdFloatMultAcc             0                       # attempts to use FU when none available (Count)
system.cpu.statFuBusy::SimdFloatMatMultAcc            0                       # attempts to use FU when none available (Count)
system.cpu.statFuBusy::SimdFloatSqrt                0                       # attempts to use FU when none available (Count)
system.cpu.statFuBusy::SimdReduceAdd                0                       # attempts to use FU when none available (Count)
system.cpu.statFuBusy::SimdReduceAlu                0                       # attempts to use FU when none available (Count)
system.cpu.statFuBusy::SimdReduceCmp                0                       # attempts to use FU when none available (Count)
system.cpu.statFuBusy::SimdFloatReduceAdd            0                       # attempts to use FU when none available (Count)
system.cpu.statFuBusy::SimdFloatReduceCmp            0                       # attempts to use FU when none available (Count)
system.cpu.statFuBusy::SimdAes                      0                       # attempts to use FU when none available (Count)
system.cpu.statFuBusy::SimdAesMix                   0                       # attempts to use FU when none available (Count)
system.cpu.statFuBusy::SimdSha1Hash                 0                       # attempts to use FU when none available (Count)
system.cpu.statFuBusy::SimdSha1Hash2                0                       # attempts to use FU when none available (Count)
system.cpu.statFuBusy::SimdSha256Hash               0                       # attempts to use FU when none available (Count)
system.cpu.statFuBusy::SimdSha256Hash2              0                       # attempts to use FU when none available (Count)
system.cpu.statFuBusy::SimdShaSigma2                0                       # attempts to use FU when none available (Count)
system.cpu.statFuBusy::SimdShaSigma3                0                       # attempts to use FU when none available (Count)
system.cpu.statFuBusy::SimdPredAlu                  0                       # attempts to use FU when none available (Count)
system.cpu.statFuBusy::Matrix                       0                       # attempts to use FU when none available (Count)
system.cpu.statFuBusy::MatrixMov                    0                       # attempts to use FU when none available (Count)
system.cpu.statFuBusy::MatrixOP                     0                       # attempts to use FU when none available (Count)
system.cpu.statFuBusy::MemRead                      0                       # attempts to use FU when none available (Count)
system.cpu.statFuBusy::MemWrite                     0                       # attempts to use FU when none available (Count)
system.cpu.statFuBusy::FloatMemRead                 0                       # attempts to use FU when none available (Count)
system.cpu.statFuBusy::FloatMemWrite                0                       # attempts to use FU when none available (Count)
system.cpu.statFuBusy::IprAccess                    0                       # attempts to use FU when none available (Count)
system.cpu.statFuBusy::InstPrefetch                 0                       # attempts to use FU when none available (Count)
system.cpu.statFuBusy::VectorUnitStrideLoad            0                       # attempts to use FU when none available (Count)
system.cpu.statFuBusy::VectorUnitStrideStore            0                       # attempts to use FU when none available (Count)
system.cpu.statFuBusy::VectorUnitStrideMaskLoad            0                       # attempts to use FU when none available (Count)
system.cpu.statFuBusy::VectorUnitStrideMaskStore            0                       # attempts to use FU when none available (Count)
system.cpu.statFuBusy::VectorStridedLoad            0                       # attempts to use FU when none available (Count)
system.cpu.statFuBusy::VectorStridedStore            0                       # attempts to use FU when none available (Count)
system.cpu.statFuBusy::VectorIndexedLoad            0                       # attempts to use FU when none available (Count)
system.cpu.statFuBusy::VectorIndexedStore            0                       # attempts to use FU when none available (Count)
system.cpu.statFuBusy::VectorUnitStrideFaultOnlyFirstLoad            0                       # attempts to use FU when none available (Count)
system.cpu.statFuBusy::VectorWholeRegisterLoad            0                       # attempts to use FU when none available (Count)
system.cpu.statFuBusy::VectorWholeRegisterStore            0                       # attempts to use FU when none available (Count)
system.cpu.statFuBusy::VectorIntegerArith            0                       # attempts to use FU when none available (Count)
system.cpu.statFuBusy::VectorFloatArith             0                       # attempts to use FU when none available (Count)
system.cpu.statFuBusy::VectorFloatConvert            0                       # attempts to use FU when none available (Count)
system.cpu.statFuBusy::VectorIntegerReduce            0                       # attempts to use FU when none available (Count)
system.cpu.statFuBusy::VectorFloatReduce            0                       # attempts to use FU when none available (Count)
system.cpu.statFuBusy::VectorMisc                   0                       # attempts to use FU when none available (Count)
system.cpu.statFuBusy::VectorIntegerExtension            0                       # attempts to use FU when none available (Count)
system.cpu.statFuBusy::VectorConfig                 0                       # attempts to use FU when none available (Count)
system.cpu.statIssuedInstType_0::No_OpClass         2622      0.10%      0.10% # Number of instructions issued per FU type, per thread (Count)
system.cpu.statIssuedInstType_0::IntAlu       1678395     63.32%     63.42% # Number of instructions issued per FU type, per thread (Count)
system.cpu.statIssuedInstType_0::IntMult          836      0.03%     63.45% # Number of instructions issued per FU type, per thread (Count)
system.cpu.statIssuedInstType_0::IntDiv          1627      0.06%     63.51% # Number of instructions issued per FU type, per thread (Count)
system.cpu.statIssuedInstType_0::FloatAdd       100651      3.80%     67.31% # Number of instructions issued per FU type, per thread (Count)
system.cpu.statIssuedInstType_0::FloatCmp            0      0.00%     67.31% # Number of instructions issued per FU type, per thread (Count)
system.cpu.statIssuedInstType_0::FloatCvt            0      0.00%     67.31% # Number of instructions issued per FU type, per thread (Count)
system.cpu.statIssuedInstType_0::FloatMult            0      0.00%     67.31% # Number of instructions issued per FU type, per thread (Count)
system.cpu.statIssuedInstType_0::FloatMultAcc            0      0.00%     67.31% # Number of instructions issued per FU type, per thread (Count)
system.cpu.statIssuedInstType_0::FloatDiv            0      0.00%     67.31% # Number of instructions issued per FU type, per thread (Count)
system.cpu.statIssuedInstType_0::FloatMisc            0      0.00%     67.31% # Number of instructions issued per FU type, per thread (Count)
system.cpu.statIssuedInstType_0::FloatSqrt            0      0.00%     67.31% # Number of instructions issued per FU type, per thread (Count)
system.cpu.statIssuedInstType_0::SimdAdd          490      0.02%     67.33% # Number of instructions issued per FU type, per thread (Count)
system.cpu.statIssuedInstType_0::SimdAddAcc            0      0.00%     67.33% # Number of instructions issued per FU type, per thread (Count)
system.cpu.statIssuedInstType_0::SimdAlu         1304      0.05%     67.38% # Number of instructions issued per FU type, per thread (Count)
system.cpu.statIssuedInstType_0::SimdCmp            2      0.00%     67.38% # Number of instructions issued per FU type, per thread (Count)
system.cpu.statIssuedInstType_0::SimdCvt         1188      0.04%     67.42% # Number of instructions issued per FU type, per thread (Count)
system.cpu.statIssuedInstType_0::SimdMisc         1102      0.04%     67.46% # Number of instructions issued per FU type, per thread (Count)
system.cpu.statIssuedInstType_0::SimdMult            0      0.00%     67.46% # Number of instructions issued per FU type, per thread (Count)
system.cpu.statIssuedInstType_0::SimdMultAcc            0      0.00%     67.46% # Number of instructions issued per FU type, per thread (Count)
system.cpu.statIssuedInstType_0::SimdMatMultAcc            0      0.00%     67.46% # Number of instructions issued per FU type, per thread (Count)
system.cpu.statIssuedInstType_0::SimdShift          364      0.01%     67.48% # Number of instructions issued per FU type, per thread (Count)
system.cpu.statIssuedInstType_0::SimdShiftAcc            0      0.00%     67.48% # Number of instructions issued per FU type, per thread (Count)
system.cpu.statIssuedInstType_0::SimdDiv            0      0.00%     67.48% # Number of instructions issued per FU type, per thread (Count)
system.cpu.statIssuedInstType_0::SimdSqrt            0      0.00%     67.48% # Number of instructions issued per FU type, per thread (Count)
system.cpu.statIssuedInstType_0::SimdFloatAdd       100000      3.77%     71.25% # Number of instructions issued per FU type, per thread (Count)
system.cpu.statIssuedInstType_0::SimdFloatAlu            0      0.00%     71.25% # Number of instructions issued per FU type, per thread (Count)
system.cpu.statIssuedInstType_0::SimdFloatCmp            0      0.00%     71.25% # Number of instructions issued per FU type, per thread (Count)
system.cpu.statIssuedInstType_0::SimdFloatCvt            2      0.00%     71.25% # Number of instructions issued per FU type, per thread (Count)
system.cpu.statIssuedInstType_0::SimdFloatDiv            0      0.00%     71.25% # Number of instructions issued per FU type, per thread (Count)
system.cpu.statIssuedInstType_0::SimdFloatMisc            0      0.00%     71.25% # Number of instructions issued per FU type, per thread (Count)
system.cpu.statIssuedInstType_0::SimdFloatMult       100000      3.77%     75.02% # Number of instructions issued per FU type, per thread (Count)
system.cpu.statIssuedInstType_0::SimdFloatMultAcc            0      0.00%     75.02% # Number of instructions issued per FU type, per thread (Count)
system.cpu.statIssuedInstType_0::SimdFloatMatMultAcc            0      0.00%     75.02% # Number of instructions issued per FU type, per thread (Count)
system.cpu.statIssuedInstType_0::SimdFloatSqrt            0      0.00%     75.02% # Number of instructions issued per FU type, per thread (Count)
system.cpu.statIssuedInstType_0::SimdReduceAdd            0      0.00%     75.02% # Number of instructions issued per FU type, per thread (Count)
system.cpu.statIssuedInstType_0::SimdReduceAlu            0      0.00%     75.02% # Number of instructions issued per FU type, per thread (Count)
system.cpu.statIssuedInstType_0::SimdReduceCmp            0      0.00%     75.02% # Number of instructions issued per FU type, per thread (Count)
system.cpu.statIssuedInstType_0::SimdFloatReduceAdd            0      0.00%     75.02% # Number of instructions issued per FU type, per thread (Count)
system.cpu.statIssuedInstType_0::SimdFloatReduceCmp            0      0.00%     75.02% # Number of instructions issued per FU type, per thread (Count)
system.cpu.statIssuedInstType_0::SimdAes            0      0.00%     75.02% # Number of instructions issued per FU type, per thread (Count)
system.cpu.statIssuedInstType_0::SimdAesMix            0      0.00%     75.02% # Number of instructions issued per FU type, per thread (Count)
system.cpu.statIssuedInstType_0::SimdSha1Hash            0      0.00%     75.02% # Number of instructions issued per FU type, per thread (Count)
system.cpu.statIssuedInstType_0::SimdSha1Hash2            0      0.00%     75.02% # Number of instructions issued per FU type, per thread (Count)
system.cpu.statIssuedInstType_0::SimdSha256Hash            0      0.00%     75.02% # Number of instructions issued per FU type, per thread (Count)
system.cpu.statIssuedInstType_0::SimdSha256Hash2            0      0.00%     75.02% # Number of instructions issued per FU type, per thread (Count)
system.cpu.statIssuedInstType_0::SimdShaSigma2            0      0.00%     75.02% # Number of instructions issued per FU type, per thread (Count)
system.cpu.statIssuedInstType_0::SimdShaSigma3            0      0.00%     75.02% # Number of instructions issued per FU type, per thread (Count)
system.cpu.statIssuedInstType_0::SimdPredAlu            0      0.00%     75.02% # Number of instructions issued per FU type, per thread (Count)
system.cpu.statIssuedInstType_0::Matrix             0      0.00%     75.02% # Number of instructions issued per FU type, per thread (Count)
system.cpu.statIssuedInstType_0::MatrixMov            0      0.00%     75.02% # Number of instructions issued per FU type, per thread (Count)
system.cpu.statIssuedInstType_0::MatrixOP            0      0.00%     75.02% # Number of instructions issued per FU type, per thread (Count)
system.cpu.statIssuedInstType_0::MemRead        30351      1.15%     76.17% # Number of instructions issued per FU type, per thread (Count)
system.cpu.statIssuedInstType_0::MemWrite        14790      0.56%     76.73% # Number of instructions issued per FU type, per thread (Count)
system.cpu.statIssuedInstType_0::FloatMemRead       203039      7.66%     84.39% # Number of instructions issued per FU type, per thread (Count)
system.cpu.statIssuedInstType_0::FloatMemWrite       413865     15.61%    100.00% # Number of instructions issued per FU type, per thread (Count)
system.cpu.statIssuedInstType_0::IprAccess            0      0.00%    100.00% # Number of instructions issued per FU type, per thread (Count)
system.cpu.statIssuedInstType_0::InstPrefetch            0      0.00%    100.00% # Number of instructions issued per FU type, per thread (Count)
system.cpu.statIssuedInstType_0::VectorUnitStrideLoad            0      0.00%    100.00% # Number of instructions issued per FU type, per thread (Count)
system.cpu.statIssuedInstType_0::VectorUnitStrideStore            0      0.00%    100.00% # Number of instructions issued per FU type, per thread (Count)
system.cpu.statIssuedInstType_0::VectorUnitStrideMaskLoad            0      0.00%    100.00% # Number of instructions issued per FU type, per thread (Count)
system.cpu.statIssuedInstType_0::VectorUnitStrideMaskStore            0      0.00%    100.00% # Number of instructions issued per FU type, per thread (Count)
system.cpu.statIssuedInstType_0::VectorStridedLoad            0      0.00%    100.00% # Number of instructions issued per FU type, per thread (Count)
system.cpu.statIssuedInstType_0::VectorStridedStore            0      0.00%    100.00% # Number of instructions issued per FU type, per thread (Count)
system.cpu.statIssuedInstType_0::VectorIndexedLoad            0      0.00%    100.00% # Number of instructions issued per FU type, per thread (Count)
system.cpu.statIssuedInstType_0::VectorIndexedStore            0      0.00%    100.00% # Number of instructions issued per FU type, per thread (Count)
system.cpu.statIssuedInstType_0::VectorUnitStrideFaultOnlyFirstLoad            0      0.00%    100.00% # Number of instructions issued per FU type, per thread (Count)
system.cpu.statIssuedInstType_0::VectorWholeRegisterLoad            0      0.00%    100.00% # Number of instructions issued per FU type, per thread (Count)
system.cpu.statIssuedInstType_0::VectorWholeRegisterStore            0      0.00%    100.00% # Number of instructions issued per FU type, per thread (Count)
system.cpu.statIssuedInstType_0::VectorIntegerArith            0      0.00%    100.00% # Number of instructions issued per FU type, per thread (Count)
system.cpu.statIssuedInstType_0::VectorFloatArith            0      0.00%    100.00% # Number of instructions issued per FU type, per thread (Count)
system.cpu.statIssuedInstType_0::VectorFloatConvert            0      0.00%    100.00% # Number of instructions issued per FU type, per thread (Count)
system.cpu.statIssuedInstType_0::VectorIntegerReduce            0      0.00%    100.00% # Number of instructions issued per FU type, per thread (Count)
system.cpu.statIssuedInstType_0::VectorFloatReduce            0      0.00%    100.00% # Number of instructions issued per FU type, per thread (Count)
system.cpu.statIssuedInstType_0::VectorMisc            0      0.00%    100.00% # Number of instructions issued per FU type, per thread (Count)
system.cpu.statIssuedInstType_0::VectorIntegerExtension            0      0.00%    100.00% # Number of instructions issued per FU type, per thread (Count)
system.cpu.statIssuedInstType_0::VectorConfig            0      0.00%    100.00% # Number of instructions issued per FU type, per thread (Count)
system.cpu.statIssuedInstType_0::total        2650628                       # Number of instructions issued per FU type, per thread (Count)
system.cpu.issueRate                         1.062718                       # Inst issue rate ((Count/Cycle))
system.cpu.fuBusy                                   0                       # FU busy when requested (Count)
system.cpu.fuBusyRate                               0                       # FU busy rate (busy events/executed inst) ((Count/Count))
system.cpu.intInstQueueReads                  5930799                       # Number of integer instruction queue reads (Count)
system.cpu.intInstQueueWrites                 1816660                       # Number of integer instruction queue writes (Count)
system.cpu.intInstQueueWakeupAccesses         1722251                       # Number of integer instruction queue wakeup accesses (Count)
system.cpu.fpInstQueueReads                   1844929                       # Number of floating instruction queue reads (Count)
system.cpu.fpInstQueueWrites                   937098                       # Number of floating instruction queue writes (Count)
system.cpu.fpInstQueueWakeupAccesses           908427                       # Number of floating instruction queue wakeup accesses (Count)
system.cpu.vecInstQueueReads                        0                       # Number of vector instruction queue reads (Count)
system.cpu.vecInstQueueWrites                       0                       # Number of vector instruction queue writes (Count)
system.cpu.vecInstQueueWakeupAccesses               0                       # Number of vector instruction queue wakeup accesses (Count)
system.cpu.intAluAccesses                     1725596                       # Number of integer alu accesses (Count)
system.cpu.fpAluAccesses                       922410                       # Number of floating point alu accesses (Count)
system.cpu.vecAluAccesses                           0                       # Number of vector alu accesses (Count)
system.cpu.numSquashedInsts                      3865                       # Number of squashed instructions skipped in execute (Count)
system.cpu.numSwp                                   0                       # Number of swp insts executed (Count)
system.cpu.timesIdled                             482                       # Number of times that the entire CPU went into an idle state and unscheduled itself (Count)
system.cpu.idleCycles                           20398                       # Total number of cycles that the CPU has spent unscheduled due to idling (Cycle)
system.cpu.MemDepUnit__0.insertedLoads         233198                       # Number of loads inserted to the mem dependence unit. (Count)
system.cpu.MemDepUnit__0.insertedStores        429872                       # Number of stores inserted to the mem dependence unit. (Count)
system.cpu.MemDepUnit__0.conflictingLoads         1304                       # Number of conflicting loads. (Count)
system.cpu.MemDepUnit__0.conflictingStores         1299                       # Number of conflicting stores. (Count)
system.cpu.MemDepUnit__1.insertedLoads              0                       # Number of loads inserted to the mem dependence unit. (Count)
system.cpu.MemDepUnit__1.insertedStores             0                       # Number of stores inserted to the mem dependence unit. (Count)
system.cpu.MemDepUnit__1.conflictingLoads            0                       # Number of conflicting loads. (Count)
system.cpu.MemDepUnit__1.conflictingStores            0                       # Number of conflicting stores. (Count)
system.cpu.MemDepUnit__2.insertedLoads              0                       # Number of loads inserted to the mem dependence unit. (Count)
system.cpu.MemDepUnit__2.insertedStores             0                       # Number of stores inserted to the mem dependence unit. (Count)
system.cpu.MemDepUnit__2.conflictingLoads            0                       # Number of conflicting loads. (Count)
system.cpu.MemDepUnit__2.conflictingStores            0                       # Number of conflicting stores. (Count)
system.cpu.MemDepUnit__3.insertedLoads              0                       # Number of loads inserted to the mem dependence unit. (Count)
system.cpu.MemDepUnit__3.insertedStores             0                       # Number of stores inserted to the mem dependence unit. (Count)
system.cpu.MemDepUnit__3.conflictingLoads            0                       # Number of conflicting loads. (Count)
system.cpu.MemDepUnit__3.conflictingStores            0                       # Number of conflicting stores. (Count)
system.cpu.branchPred.lookups_0::NoBranch          375      0.15%      0.15% # Number of BP lookups (Count)
system.cpu.branchPred.lookups_0::Return          1361      0.54%      0.69% # Number of BP lookups (Count)
system.cpu.branchPred.lookups_0::CallDirect         1526      0.61%      1.30% # Number of BP lookups (Count)
system.cpu.branchPred.lookups_0::CallIndirect          153      0.06%      1.36% # Number of BP lookups (Count)
system.cpu.branchPred.lookups_0::DirectCond       245133     97.85%     99.21% # Number of BP lookups (Count)
system.cpu.branchPred.lookups_0::DirectUncond         1384      0.55%     99.76% # Number of BP lookups (Count)
system.cpu.branchPred.lookups_0::IndirectCond            0      0.00%     99.76% # Number of BP lookups (Count)
system.cpu.branchPred.lookups_0::IndirectUncond          596      0.24%    100.00% # Number of BP lookups (Count)
system.cpu.branchPred.lookups_0::total         250528                       # Number of BP lookups (Count)
system.cpu.branchPred.squashes_0::NoBranch          339      2.00%      2.00% # Number of branches that got squashed (completely removed) as an earlier branch was mispredicted. (Count)
system.cpu.branchPred.squashes_0::Return          432      2.55%      4.55% # Number of branches that got squashed (completely removed) as an earlier branch was mispredicted. (Count)
system.cpu.branchPred.squashes_0::CallDirect          703      4.15%      8.70% # Number of branches that got squashed (completely removed) as an earlier branch was mispredicted. (Count)
system.cpu.branchPred.squashes_0::CallIndirect           42      0.25%      8.95% # Number of branches that got squashed (completely removed) as an earlier branch was mispredicted. (Count)
system.cpu.branchPred.squashes_0::DirectCond        14443     85.24%     94.19% # Number of branches that got squashed (completely removed) as an earlier branch was mispredicted. (Count)
system.cpu.branchPred.squashes_0::DirectUncond          620      3.66%     97.85% # Number of branches that got squashed (completely removed) as an earlier branch was mispredicted. (Count)
system.cpu.branchPred.squashes_0::IndirectCond            0      0.00%     97.85% # Number of branches that got squashed (completely removed) as an earlier branch was mispredicted. (Count)
system.cpu.branchPred.squashes_0::IndirectUncond          365      2.15%    100.00% # Number of branches that got squashed (completely removed) as an earlier branch was mispredicted. (Count)
system.cpu.branchPred.squashes_0::total         16944                       # Number of branches that got squashed (completely removed) as an earlier branch was mispredicted. (Count)
system.cpu.branchPred.corrected_0::NoBranch           54      1.68%      1.68% # Number of branches that got corrected but not yet commited. Branches get corrected by decode or after execute. Also a branch misprediction can be detected out-of-order. Therefore, a corrected branch might not end up beeing committed in case an even earlier branch was mispredicted (Count)
system.cpu.branchPred.corrected_0::Return            1      0.03%      1.71% # Number of branches that got corrected but not yet commited. Branches get corrected by decode or after execute. Also a branch misprediction can be detected out-of-order. Therefore, a corrected branch might not end up beeing committed in case an even earlier branch was mispredicted (Count)
system.cpu.branchPred.corrected_0::CallDirect          352     10.98%     12.69% # Number of branches that got corrected but not yet commited. Branches get corrected by decode or after execute. Also a branch misprediction can be detected out-of-order. Therefore, a corrected branch might not end up beeing committed in case an even earlier branch was mispredicted (Count)
system.cpu.branchPred.corrected_0::CallIndirect          102      3.18%     15.87% # Number of branches that got corrected but not yet commited. Branches get corrected by decode or after execute. Also a branch misprediction can be detected out-of-order. Therefore, a corrected branch might not end up beeing committed in case an even earlier branch was mispredicted (Count)
system.cpu.branchPred.corrected_0::DirectCond         2245     70.00%     85.87% # Number of branches that got corrected but not yet commited. Branches get corrected by decode or after execute. Also a branch misprediction can be detected out-of-order. Therefore, a corrected branch might not end up beeing committed in case an even earlier branch was mispredicted (Count)
system.cpu.branchPred.corrected_0::DirectUncond          291      9.07%     94.95% # Number of branches that got corrected but not yet commited. Branches get corrected by decode or after execute. Also a branch misprediction can be detected out-of-order. Therefore, a corrected branch might not end up beeing committed in case an even earlier branch was mispredicted (Count)
system.cpu.branchPred.corrected_0::IndirectCond            0      0.00%     94.95% # Number of branches that got corrected but not yet commited. Branches get corrected by decode or after execute. Also a branch misprediction can be detected out-of-order. Therefore, a corrected branch might not end up beeing committed in case an even earlier branch was mispredicted (Count)
system.cpu.branchPred.corrected_0::IndirectUncond          162      5.05%    100.00% # Number of branches that got corrected but not yet commited. Branches get corrected by decode or after execute. Also a branch misprediction can be detected out-of-order. Therefore, a corrected branch might not end up beeing committed in case an even earlier branch was mispredicted (Count)
system.cpu.branchPred.corrected_0::total         3207                       # Number of branches that got corrected but not yet commited. Branches get corrected by decode or after execute. Also a branch misprediction can be detected out-of-order. Therefore, a corrected branch might not end up beeing committed in case an even earlier branch was mispredicted (Count)
system.cpu.branchPred.earlyResteers_0::NoBranch            0                       # Number of branches that got redirected after decode. (Count)
system.cpu.branchPred.earlyResteers_0::Return            0                       # Number of branches that got redirected after decode. (Count)
system.cpu.branchPred.earlyResteers_0::CallDirect            0                       # Number of branches that got redirected after decode. (Count)
system.cpu.branchPred.earlyResteers_0::CallIndirect            0                       # Number of branches that got redirected after decode. (Count)
system.cpu.branchPred.earlyResteers_0::DirectCond            0                       # Number of branches that got redirected after decode. (Count)
system.cpu.branchPred.earlyResteers_0::DirectUncond            0                       # Number of branches that got redirected after decode. (Count)
system.cpu.branchPred.earlyResteers_0::IndirectCond            0                       # Number of branches that got redirected after decode. (Count)
system.cpu.branchPred.earlyResteers_0::IndirectUncond            0                       # Number of branches that got redirected after decode. (Count)
system.cpu.branchPred.earlyResteers_0::total            0                       # Number of branches that got redirected after decode. (Count)
system.cpu.branchPred.committed_0::NoBranch           36      0.02%      0.02% # Number of branches finally committed  (Count)
system.cpu.branchPred.committed_0::Return          929      0.40%      0.41% # Number of branches finally committed  (Count)
system.cpu.branchPred.committed_0::CallDirect          823      0.35%      0.77% # Number of branches finally committed  (Count)
system.cpu.branchPred.committed_0::CallIndirect          111      0.05%      0.81% # Number of branches finally committed  (Count)
system.cpu.branchPred.committed_0::DirectCond       230689     98.76%     99.57% # Number of branches finally committed  (Count)
system.cpu.branchPred.committed_0::DirectUncond          764      0.33%     99.90% # Number of branches finally committed  (Count)
system.cpu.branchPred.committed_0::IndirectCond            0      0.00%     99.90% # Number of branches finally committed  (Count)
system.cpu.branchPred.committed_0::IndirectUncond          231      0.10%    100.00% # Number of branches finally committed  (Count)
system.cpu.branchPred.committed_0::total       233583                       # Number of branches finally committed  (Count)
system.cpu.branchPred.mispredicted_0::NoBranch           36      1.29%      1.29% # Number of committed branches that were mispredicted. (Count)
system.cpu.branchPred.mispredicted_0::Return            0      0.00%      1.29% # Number of committed branches that were mispredicted. (Count)
system.cpu.branchPred.mispredicted_0::CallDirect          202      7.25%      8.54% # Number of committed branches that were mispredicted. (Count)
system.cpu.branchPred.mispredicted_0::CallIndirect          100      3.59%     12.13% # Number of committed branches that were mispredicted. (Count)
system.cpu.branchPred.mispredicted_0::DirectCond         2146     77.00%     89.13% # Number of committed branches that were mispredicted. (Count)
system.cpu.branchPred.mispredicted_0::DirectUncond          155      5.56%     94.69% # Number of committed branches that were mispredicted. (Count)
system.cpu.branchPred.mispredicted_0::IndirectCond            0      0.00%     94.69% # Number of committed branches that were mispredicted. (Count)
system.cpu.branchPred.mispredicted_0::IndirectUncond          148      5.31%    100.00% # Number of committed branches that were mispredicted. (Count)
system.cpu.branchPred.mispredicted_0::total         2787                       # Number of committed branches that were mispredicted. (Count)
system.cpu.branchPred.targetProvider_0::NoTarget        18584      7.42%      7.42% # The component providing the target for taken branches (Count)
system.cpu.branchPred.targetProvider_0::BTB       230466     91.99%     99.41% # The component providing the target for taken branches (Count)
system.cpu.branchPred.targetProvider_0::RAS         1361      0.54%     99.95% # The component providing the target for taken branches (Count)
system.cpu.branchPred.targetProvider_0::Indirect          117      0.05%    100.00% # The component providing the target for taken branches (Count)
system.cpu.branchPred.targetProvider_0::total       250528                       # The component providing the target for taken branches (Count)
system.cpu.branchPred.targetWrong_0::NoBranch         2502     83.68%     83.68% # Number of branches where the target was incorrect or not available at prediction time. (Count)
system.cpu.branchPred.targetWrong_0::Return          472     15.79%     99.46% # Number of branches where the target was incorrect or not available at prediction time. (Count)
system.cpu.branchPred.targetWrong_0::CallDirect            1      0.03%     99.50% # Number of branches where the target was incorrect or not available at prediction time. (Count)
system.cpu.branchPred.targetWrong_0::CallIndirect           15      0.50%    100.00% # Number of branches where the target was incorrect or not available at prediction time. (Count)
system.cpu.branchPred.targetWrong_0::DirectCond            0      0.00%    100.00% # Number of branches where the target was incorrect or not available at prediction time. (Count)
system.cpu.branchPred.targetWrong_0::DirectUncond            0      0.00%    100.00% # Number of branches where the target was incorrect or not available at prediction time. (Count)
system.cpu.branchPred.targetWrong_0::IndirectCond            0      0.00%    100.00% # Number of branches where the target was incorrect or not available at prediction time. (Count)
system.cpu.branchPred.targetWrong_0::IndirectUncond            0      0.00%    100.00% # Number of branches where the target was incorrect or not available at prediction time. (Count)
system.cpu.branchPred.targetWrong_0::total         2990                       # Number of branches where the target was incorrect or not available at prediction time. (Count)
system.cpu.branchPred.condPredicted            245508                       # Number of conditional branches predicted (Count)
system.cpu.branchPred.condPredictedTaken       229747                       # Number of conditional branches predicted as taken (Count)
system.cpu.branchPred.condIncorrect              3207                       # Number of conditional branches incorrect (Count)
system.cpu.branchPred.predTakenBTBMiss            880                       # Number of branches predicted taken but missed in BTB (Count)
system.cpu.branchPred.NotTakenMispredicted         2708                       # Number branches predicted 'not taken' but turned out to be taken (Count)
system.cpu.branchPred.TakenMispredicted           499                       # Number branches predicted taken but are actually not taken (Count)
system.cpu.branchPred.BTBLookups               250528                       # Number of BTB lookups (Count)
system.cpu.branchPred.BTBUpdates                 2389                       # Number of BTB updates (Count)
system.cpu.branchPred.BTBHits                  236850                       # Number of BTB hits (Count)
system.cpu.branchPred.BTBHitRatio            0.945403                       # BTB Hit Ratio (Ratio)
system.cpu.branchPred.BTBMispredicted            1430                       # Number BTB mispredictions. No target found or target wrong (Count)
system.cpu.branchPred.indirectLookups             749                       # Number of indirect predictor lookups. (Count)
system.cpu.branchPred.indirectHits                117                       # Number of indirect target hits. (Count)
system.cpu.branchPred.indirectMisses              632                       # Number of indirect misses. (Count)
system.cpu.branchPred.indirectMispredicted            0                       # Number of mispredicted indirect branches. (Count)
system.cpu.branchPred.btb.lookups::NoBranch          375      0.15%      0.15% # Number of BTB lookups (Count)
system.cpu.branchPred.btb.lookups::Return         1361      0.54%      0.69% # Number of BTB lookups (Count)
system.cpu.branchPred.btb.lookups::CallDirect         1526      0.61%      1.30% # Number of BTB lookups (Count)
system.cpu.branchPred.btb.lookups::CallIndirect          153      0.06%      1.36% # Number of BTB lookups (Count)
system.cpu.branchPred.btb.lookups::DirectCond       245133     97.85%     99.21% # Number of BTB lookups (Count)
system.cpu.branchPred.btb.lookups::DirectUncond         1384      0.55%     99.76% # Number of BTB lookups (Count)
system.cpu.branchPred.btb.lookups::IndirectCond            0      0.00%     99.76% # Number of BTB lookups (Count)
system.cpu.branchPred.btb.lookups::IndirectUncond          596      0.24%    100.00% # Number of BTB lookups (Count)
system.cpu.branchPred.btb.lookups::total       250528                       # Number of BTB lookups (Count)
system.cpu.branchPred.btb.misses::NoBranch          126      0.92%      0.92% # Number of BTB misses (Count)
system.cpu.branchPred.btb.misses::Return         1360      9.94%     10.86% # Number of BTB misses (Count)
system.cpu.branchPred.btb.misses::CallDirect          488      3.57%     14.43% # Number of BTB misses (Count)
system.cpu.branchPred.btb.misses::CallIndirect          153      1.12%     15.55% # Number of BTB misses (Count)
system.cpu.branchPred.btb.misses::DirectCond        10557     77.18%     92.73% # Number of BTB misses (Count)
system.cpu.branchPred.btb.misses::DirectUncond          398      2.91%     95.64% # Number of BTB misses (Count)
system.cpu.branchPred.btb.misses::IndirectCond            0      0.00%     95.64% # Number of BTB misses (Count)
system.cpu.branchPred.btb.misses::IndirectUncond          596      4.36%    100.00% # Number of BTB misses (Count)
system.cpu.branchPred.btb.misses::total         13678                       # Number of BTB misses (Count)
system.cpu.branchPred.btb.updates::NoBranch            0      0.00%      0.00% # Number of BTB updates (Count)
system.cpu.branchPred.btb.updates::Return            0      0.00%      0.00% # Number of BTB updates (Count)
system.cpu.branchPred.btb.updates::CallDirect          352     14.73%     14.73% # Number of BTB updates (Count)
system.cpu.branchPred.btb.updates::CallIndirect            0      0.00%     14.73% # Number of BTB updates (Count)
system.cpu.branchPred.btb.updates::DirectCond         1746     73.08%     87.82% # Number of BTB updates (Count)
system.cpu.branchPred.btb.updates::DirectUncond          291     12.18%    100.00% # Number of BTB updates (Count)
system.cpu.branchPred.btb.updates::IndirectCond            0      0.00%    100.00% # Number of BTB updates (Count)
system.cpu.branchPred.btb.updates::IndirectUncond            0      0.00%    100.00% # Number of BTB updates (Count)
system.cpu.branchPred.btb.updates::total         2389                       # Number of BTB updates (Count)
system.cpu.branchPred.btb.mispredict::NoBranch            0      0.00%      0.00% # Number of BTB mispredictions. No target found or target wrong. (Count)
system.cpu.branchPred.btb.mispredict::Return            0      0.00%      0.00% # Number of BTB mispredictions. No target found or target wrong. (Count)
system.cpu.branchPred.btb.mispredict::CallDirect          352     14.73%     14.73% # Number of BTB mispredictions. No target found or target wrong. (Count)
system.cpu.branchPred.btb.mispredict::CallIndirect            0      0.00%     14.73% # Number of BTB mispredictions. No target found or target wrong. (Count)
system.cpu.branchPred.btb.mispredict::DirectCond         1746     73.08%     87.82% # Number of BTB mispredictions. No target found or target wrong. (Count)
system.cpu.branchPred.btb.mispredict::DirectUncond          291     12.18%    100.00% # Number of BTB mispredictions. No target found or target wrong. (Count)
system.cpu.branchPred.btb.mispredict::IndirectCond            0      0.00%    100.00% # Number of BTB mispredictions. No target found or target wrong. (Count)
system.cpu.branchPred.btb.mispredict::IndirectUncond            0      0.00%    100.00% # Number of BTB mispredictions. No target found or target wrong. (Count)
system.cpu.branchPred.btb.mispredict::total         2389                       # Number of BTB mispredictions. No target found or target wrong. (Count)
system.cpu.branchPred.btb.power_state.pwrStateResidencyTicks::UNDEFINED   2494195000                       # Cumulative time (in ticks) in various power states (Tick)
system.cpu.branchPred.indirectBranchPred.lookups          749                       # Number of lookups (Count)
system.cpu.branchPred.indirectBranchPred.hits          117                       # Number of hits of a tag (Count)
system.cpu.branchPred.indirectBranchPred.misses          632                       # Number of misses (Count)
system.cpu.branchPred.indirectBranchPred.targetRecords          264                       # Number of targets that where recorded/installed in the cache (Count)
system.cpu.branchPred.indirectBranchPred.indirectRecords         1013                       # Number of indirect branches/calls recorded in the indirect hist (Count)
system.cpu.branchPred.indirectBranchPred.speculativeOverflows            5                       # Number of times more than the allowed capacity for speculative branches/calls where in flight and destroy the path history (Count)
system.cpu.branchPred.ras.pushes                 2111                       # Number of times a PC was pushed onto the RAS (Count)
system.cpu.branchPred.ras.pops                   2106                       # Number of times a PC was poped from the RAS (Count)
system.cpu.branchPred.ras.squashes               1177                       # Number of times the stack operation was squashed due to wrong speculation. (Count)
system.cpu.branchPred.ras.used                    929                       # Number of times the RAS is the provider (Count)
system.cpu.branchPred.ras.correct                 929                       # Number of times the RAS is the provider and the prediction is correct (Count)
system.cpu.branchPred.ras.incorrect                 0                       # Number of times the RAS is the provider and the prediction is wrong (Count)
system.cpu.commit.commitSquashedInsts           87478                       # The number of squashed insts skipped by commit (Count)
system.cpu.commit.commitNonSpecStalls              90                       # The number of times commit has been forced to stall to communicate backwards (Count)
system.cpu.commit.branchMispredicts              2863                       # The number of times a branch was mispredicted (Count)
system.cpu.commit.numCommittedDist::samples      2450218                       # Number of insts commited each cycle (Count)
system.cpu.commit.numCommittedDist::mean     1.050469                       # Number of insts commited each cycle (Count)
system.cpu.commit.numCommittedDist::stdev     1.523260                       # Number of insts commited each cycle (Count)
system.cpu.commit.numCommittedDist::underflows            0      0.00%      0.00% # Number of insts commited each cycle (Count)
system.cpu.commit.numCommittedDist::0         1491088     60.86%     60.86% # Number of insts commited each cycle (Count)
system.cpu.commit.numCommittedDist::1          256944     10.49%     71.34% # Number of insts commited each cycle (Count)
system.cpu.commit.numCommittedDist::2          169912      6.93%     78.28% # Number of insts commited each cycle (Count)
system.cpu.commit.numCommittedDist::3          151987      6.20%     84.48% # Number of insts commited each cycle (Count)
system.cpu.commit.numCommittedDist::4          380287     15.52%    100.00% # Number of insts commited each cycle (Count)
system.cpu.commit.numCommittedDist::overflows            0      0.00%    100.00% # Number of insts commited each cycle (Count)
system.cpu.commit.numCommittedDist::min_value            0                       # Number of insts commited each cycle (Count)
system.cpu.commit.numCommittedDist::max_value            4                       # Number of insts commited each cycle (Count)
system.cpu.commit.numCommittedDist::total      2450218                       # Number of insts commited each cycle (Count)
system.cpu.commit.amos                              0                       # Number of atomic instructions committed (Count)
system.cpu.commit.membars                          60                       # Number of memory barriers committed (Count)
system.cpu.commit.functionCalls                   934                       # Number of function calls committed. (Count)
system.cpu.commit.committedInstType_0::No_OpClass         1391      0.05%      0.05% # Class of committed instruction (Count)
system.cpu.commit.committedInstType_0::IntAlu      1626518     63.19%     63.25% # Class of committed instruction (Count)
system.cpu.commit.committedInstType_0::IntMult          724      0.03%     63.28% # Class of committed instruction (Count)
system.cpu.commit.committedInstType_0::IntDiv         1493      0.06%     63.33% # Class of committed instruction (Count)
system.cpu.commit.committedInstType_0::FloatAdd       100412      3.90%     67.23% # Class of committed instruction (Count)
system.cpu.commit.committedInstType_0::FloatCmp            0      0.00%     67.23% # Class of committed instruction (Count)
system.cpu.commit.committedInstType_0::FloatCvt            0      0.00%     67.23% # Class of committed instruction (Count)
system.cpu.commit.committedInstType_0::FloatMult            0      0.00%     67.23% # Class of committed instruction (Count)
system.cpu.commit.committedInstType_0::FloatMultAcc            0      0.00%     67.23% # Class of committed instruction (Count)
system.cpu.commit.committedInstType_0::FloatDiv            0      0.00%     67.23% # Class of committed instruction (Count)
system.cpu.commit.committedInstType_0::FloatMisc            0      0.00%     67.23% # Class of committed instruction (Count)
system.cpu.commit.committedInstType_0::FloatSqrt            0      0.00%     67.23% # Class of committed instruction (Count)
system.cpu.commit.committedInstType_0::SimdAdd          424      0.02%     67.25% # Class of committed instruction (Count)
system.cpu.commit.committedInstType_0::SimdAddAcc            0      0.00%     67.25% # Class of committed instruction (Count)
system.cpu.commit.committedInstType_0::SimdAlu          919      0.04%     67.29% # Class of committed instruction (Count)
system.cpu.commit.committedInstType_0::SimdCmp            2      0.00%     67.29% # Class of committed instruction (Count)
system.cpu.commit.committedInstType_0::SimdCvt          970      0.04%     67.32% # Class of committed instruction (Count)
system.cpu.commit.committedInstType_0::SimdMisc         1017      0.04%     67.36% # Class of committed instruction (Count)
system.cpu.commit.committedInstType_0::SimdMult            0      0.00%     67.36% # Class of committed instruction (Count)
system.cpu.commit.committedInstType_0::SimdMultAcc            0      0.00%     67.36% # Class of committed instruction (Count)
system.cpu.commit.committedInstType_0::SimdMatMultAcc            0      0.00%     67.36% # Class of committed instruction (Count)
system.cpu.commit.committedInstType_0::SimdShift          201      0.01%     67.37% # Class of committed instruction (Count)
system.cpu.commit.committedInstType_0::SimdShiftAcc            0      0.00%     67.37% # Class of committed instruction (Count)
system.cpu.commit.committedInstType_0::SimdDiv            0      0.00%     67.37% # Class of committed instruction (Count)
system.cpu.commit.committedInstType_0::SimdSqrt            0      0.00%     67.37% # Class of committed instruction (Count)
system.cpu.commit.committedInstType_0::SimdFloatAdd       100000      3.89%     71.26% # Class of committed instruction (Count)
system.cpu.commit.committedInstType_0::SimdFloatAlu            0      0.00%     71.26% # Class of committed instruction (Count)
system.cpu.commit.committedInstType_0::SimdFloatCmp            0      0.00%     71.26% # Class of committed instruction (Count)
system.cpu.commit.committedInstType_0::SimdFloatCvt            2      0.00%     71.26% # Class of committed instruction (Count)
system.cpu.commit.committedInstType_0::SimdFloatDiv            0      0.00%     71.26% # Class of committed instruction (Count)
system.cpu.commit.committedInstType_0::SimdFloatMisc            0      0.00%     71.26% # Class of committed instruction (Count)
system.cpu.commit.committedInstType_0::SimdFloatMult       100000      3.89%     75.14% # Class of committed instruction (Count)
system.cpu.commit.committedInstType_0::SimdFloatMultAcc            0      0.00%     75.14% # Class of committed instruction (Count)
system.cpu.commit.committedInstType_0::SimdFloatMatMultAcc            0      0.00%     75.14% # Class of committed instruction (Count)
system.cpu.commit.committedInstType_0::SimdFloatSqrt            0      0.00%     75.14% # Class of committed instruction (Count)
system.cpu.commit.committedInstType_0::SimdReduceAdd            0      0.00%     75.14% # Class of committed instruction (Count)
system.cpu.commit.committedInstType_0::SimdReduceAlu            0      0.00%     75.14% # Class of committed instruction (Count)
system.cpu.commit.committedInstType_0::SimdReduceCmp            0      0.00%     75.14% # Class of committed instruction (Count)
system.cpu.commit.committedInstType_0::SimdFloatReduceAdd            0      0.00%     75.14% # Class of committed instruction (Count)
system.cpu.commit.committedInstType_0::SimdFloatReduceCmp            0      0.00%     75.14% # Class of committed instruction (Count)
system.cpu.commit.committedInstType_0::SimdAes            0      0.00%     75.14% # Class of committed instruction (Count)
system.cpu.commit.committedInstType_0::SimdAesMix            0      0.00%     75.14% # Class of committed instruction (Count)
system.cpu.commit.committedInstType_0::SimdSha1Hash            0      0.00%     75.14% # Class of committed instruction (Count)
system.cpu.commit.committedInstType_0::SimdSha1Hash2            0      0.00%     75.14% # Class of committed instruction (Count)
system.cpu.commit.committedInstType_0::SimdSha256Hash            0      0.00%     75.14% # Class of committed instruction (Count)
system.cpu.commit.committedInstType_0::SimdSha256Hash2            0      0.00%     75.14% # Class of committed instruction (Count)
system.cpu.commit.committedInstType_0::SimdShaSigma2            0      0.00%     75.14% # Class of committed instruction (Count)
system.cpu.commit.committedInstType_0::SimdShaSigma3            0      0.00%     75.14% # Class of committed instruction (Count)
system.cpu.commit.committedInstType_0::SimdPredAlu            0      0.00%     75.14% # Class of committed instruction (Count)
system.cpu.commit.committedInstType_0::Matrix            0      0.00%     75.14% # Class of committed instruction (Count)
system.cpu.commit.committedInstType_0::MatrixMov            0      0.00%     75.14% # Class of committed instruction (Count)
system.cpu.commit.committedInstType_0::MatrixOP            0      0.00%     75.14% # Class of committed instruction (Count)
system.cpu.commit.committedInstType_0::MemRead        25158      0.98%     76.12% # Class of committed instruction (Count)
system.cpu.commit.committedInstType_0::MemWrite        12418      0.48%     76.60% # Class of committed instruction (Count)
system.cpu.commit.committedInstType_0::FloatMemRead       201070      7.81%     84.41% # Class of committed instruction (Count)
system.cpu.commit.committedInstType_0::FloatMemWrite       401158     15.59%    100.00% # Class of committed instruction (Count)
system.cpu.commit.committedInstType_0::IprAccess            0      0.00%    100.00% # Class of committed instruction (Count)
system.cpu.commit.committedInstType_0::InstPrefetch            0      0.00%    100.00% # Class of committed instruction (Count)
system.cpu.commit.committedInstType_0::VectorUnitStrideLoad            0      0.00%    100.00% # Class of committed instruction (Count)
system.cpu.commit.committedInstType_0::VectorUnitStrideStore            0      0.00%    100.00% # Class of committed instruction (Count)
system.cpu.commit.committedInstType_0::VectorUnitStrideMaskLoad            0      0.00%    100.00% # Class of committed instruction (Count)
system.cpu.commit.committedInstType_0::VectorUnitStrideMaskStore            0      0.00%    100.00% # Class of committed instruction (Count)
system.cpu.commit.committedInstType_0::VectorStridedLoad            0      0.00%    100.00% # Class of committed instruction (Count)
system.cpu.commit.committedInstType_0::VectorStridedStore            0      0.00%    100.00% # Class of committed instruction (Count)
system.cpu.commit.committedInstType_0::VectorIndexedLoad            0      0.00%    100.00% # Class of committed instruction (Count)
system.cpu.commit.committedInstType_0::VectorIndexedStore            0      0.00%    100.00% # Class of committed instruction (Count)
system.cpu.commit.committedInstType_0::VectorUnitStrideFaultOnlyFirstLoad            0      0.00%    100.00% # Class of committed instruction (Count)
system.cpu.commit.committedInstType_0::VectorWholeRegisterLoad            0      0.00%    100.00% # Class of committed instruction (Count)
system.cpu.commit.committedInstType_0::VectorWholeRegisterStore            0      0.00%    100.00% # Class of committed instruction (Count)
system.cpu.commit.committedInstType_0::VectorIntegerArith            0      0.00%    100.00% # Class of committed instruction (Count)
system.cpu.commit.committedInstType_0::VectorFloatArith            0      0.00%    100.00% # Class of committed instruction (Count)
system.cpu.commit.committedInstType_0::VectorFloatConvert            0      0.00%    100.00% # Class of committed instruction (Count)
system.cpu.commit.committedInstType_0::VectorIntegerReduce            0      0.00%    100.00% # Class of committed instruction (Count)
system.cpu.commit.committedInstType_0::VectorFloatReduce            0      0.00%    100.00% # Class of committed instruction (Count)
system.cpu.commit.committedInstType_0::VectorMisc            0      0.00%    100.00% # Class of committed instruction (Count)
system.cpu.commit.committedInstType_0::VectorIntegerExtension            0      0.00%    100.00% # Class of committed instruction (Count)
system.cpu.commit.committedInstType_0::VectorConfig            0      0.00%    100.00% # Class of committed instruction (Count)
system.cpu.commit.committedInstType_0::total      2573877                       # Class of committed instruction (Count)
system.cpu.commit.commitEligibleSamples        380287                       # number cycles where commit BW limit reached (Cycle)
system.cpu.commitStats0.numInsts              1390852                       # Number of instructions committed (thread level) (Count)
system.cpu.commitStats0.numOps                2573877                       # Number of ops (including micro ops) committed (thread level) (Count)
system.cpu.commitStats0.numInstsNotNOP        1390852                       # Number of instructions committed excluding NOPs or prefetches (Count)
system.cpu.commitStats0.numOpsNotNOP          2573877                       # Number of Ops (including micro ops) Simulated (Count)
system.cpu.commitStats0.cpi                  1.793286                       # CPI: cycles per instruction (thread level) ((Cycle/Count))
system.cpu.commitStats0.ipc                  0.557635                       # IPC: instructions per cycle (thread level) ((Count/Cycle))
system.cpu.commitStats0.numMemRefs             639804                       # Number of memory references committed (Count)
system.cpu.commitStats0.numFpInsts             906538                       # Number of float instructions (Count)
system.cpu.commitStats0.numIntInsts           2267883                       # Number of integer instructions (Count)
system.cpu.commitStats0.numLoadInsts           226228                       # Number of load instructions (Count)
system.cpu.commitStats0.numStoreInsts          413576                       # Number of store instructions (Count)
system.cpu.commitStats0.numVecInsts                 0                       # Number of vector instructions (Count)
system.cpu.commitStats0.committedInstType::No_OpClass         1391      0.05%      0.05% # Class of committed instruction. (Count)
system.cpu.commitStats0.committedInstType::IntAlu      1626518     63.19%     63.25% # Class of committed instruction. (Count)
system.cpu.commitStats0.committedInstType::IntMult          724      0.03%     63.28% # Class of committed instruction. (Count)
system.cpu.commitStats0.committedInstType::IntDiv         1493      0.06%     63.33% # Class of committed instruction. (Count)
system.cpu.commitStats0.committedInstType::FloatAdd       100412      3.90%     67.23% # Class of committed instruction. (Count)
system.cpu.commitStats0.committedInstType::FloatCmp            0      0.00%     67.23% # Class of committed instruction. (Count)
system.cpu.commitStats0.committedInstType::FloatCvt            0      0.00%     67.23% # Class of committed instruction. (Count)
system.cpu.commitStats0.committedInstType::FloatMult            0      0.00%     67.23% # Class of committed instruction. (Count)
system.cpu.commitStats0.committedInstType::FloatMultAcc            0      0.00%     67.23% # Class of committed instruction. (Count)
system.cpu.commitStats0.committedInstType::FloatDiv            0      0.00%     67.23% # Class of committed instruction. (Count)
system.cpu.commitStats0.committedInstType::FloatMisc            0      0.00%     67.23% # Class of committed instruction. (Count)
system.cpu.commitStats0.committedInstType::FloatSqrt            0      0.00%     67.23% # Class of committed instruction. (Count)
system.cpu.commitStats0.committedInstType::SimdAdd          424      0.02%     67.25% # Class of committed instruction. (Count)
system.cpu.commitStats0.committedInstType::SimdAddAcc            0      0.00%     67.25% # Class of committed instruction. (Count)
system.cpu.commitStats0.committedInstType::SimdAlu          919      0.04%     67.29% # Class of committed instruction. (Count)
system.cpu.commitStats0.committedInstType::SimdCmp            2      0.00%     67.29% # Class of committed instruction. (Count)
system.cpu.commitStats0.committedInstType::SimdCvt          970      0.04%     67.32% # Class of committed instruction. (Count)
system.cpu.commitStats0.committedInstType::SimdMisc         1017      0.04%     67.36% # Class of committed instruction. (Count)
system.cpu.commitStats0.committedInstType::SimdMult            0      0.00%     67.36% # Class of committed instruction. (Count)
system.cpu.commitStats0.committedInstType::SimdMultAcc            0      0.00%     67.36% # Class of committed instruction. (Count)
system.cpu.commitStats0.committedInstType::SimdMatMultAcc            0      0.00%     67.36% # Class of committed instruction. (Count)
system.cpu.commitStats0.committedInstType::SimdShift          201      0.01%     67.37% # Class of committed instruction. (Count)
system.cpu.commitStats0.committedInstType::SimdShiftAcc            0      0.00%     67.37% # Class of committed instruction. (Count)
system.cpu.commitStats0.committedInstType::SimdDiv            0      0.00%     67.37% # Class of committed instruction. (Count)
system.cpu.commitStats0.committedInstType::SimdSqrt            0      0.00%     67.37% # Class of committed instruction. (Count)
system.cpu.commitStats0.committedInstType::SimdFloatAdd       100000      3.89%     71.26% # Class of committed instruction. (Count)
system.cpu.commitStats0.committedInstType::SimdFloatAlu            0      0.00%     71.26% # Class of committed instruction. (Count)
system.cpu.commitStats0.committedInstType::SimdFloatCmp            0      0.00%     71.26% # Class of committed instruction. (Count)
system.cpu.commitStats0.committedInstType::SimdFloatCvt            2      0.00%     71.26% # Class of committed instruction. (Count)
system.cpu.commitStats0.committedInstType::SimdFloatDiv            0      0.00%     71.26% # Class of committed instruction. (Count)
system.cpu.commitStats0.committedInstType::SimdFloatMisc            0      0.00%     71.26% # Class of committed instruction. (Count)
system.cpu.commitStats0.committedInstType::SimdFloatMult       100000      3.89%     75.14% # Class of committed instruction. (Count)
system.cpu.commitStats0.committedInstType::SimdFloatMultAcc            0      0.00%     75.14% # Class of committed instruction. (Count)
system.cpu.commitStats0.committedInstType::SimdFloatMatMultAcc            0      0.00%     75.14% # Class of committed instruction. (Count)
system.cpu.commitStats0.committedInstType::SimdFloatSqrt            0      0.00%     75.14% # Class of committed instruction. (Count)
system.cpu.commitStats0.committedInstType::SimdReduceAdd            0      0.00%     75.14% # Class of committed instruction. (Count)
system.cpu.commitStats0.committedInstType::SimdReduceAlu            0      0.00%     75.14% # Class of committed instruction. (Count)
system.cpu.commitStats0.committedInstType::SimdReduceCmp            0      0.00%     75.14% # Class of committed instruction. (Count)
system.cpu.commitStats0.committedInstType::SimdFloatReduceAdd            0      0.00%     75.14% # Class of committed instruction. (Count)
system.cpu.commitStats0.committedInstType::SimdFloatReduceCmp            0      0.00%     75.14% # Class of committed instruction. (Count)
system.cpu.commitStats0.committedInstType::SimdAes            0      0.00%     75.14% # Class of committed instruction. (Count)
system.cpu.commitStats0.committedInstType::SimdAesMix            0      0.00%     75.14% # Class of committed instruction. (Count)
system.cpu.commitStats0.committedInstType::SimdSha1Hash            0      0.00%     75.14% # Class of committed instruction. (Count)
system.cpu.commitStats0.committedInstType::SimdSha1Hash2            0      0.00%     75.14% # Class of committed instruction. (Count)
system.cpu.commitStats0.committedInstType::SimdSha256Hash            0      0.00%     75.14% # Class of committed instruction. (Count)
system.cpu.commitStats0.committedInstType::SimdSha256Hash2            0      0.00%     75.14% # Class of committed instruction. (Count)
system.cpu.commitStats0.committedInstType::SimdShaSigma2            0      0.00%     75.14% # Class of committed instruction. (Count)
system.cpu.commitStats0.committedInstType::SimdShaSigma3            0      0.00%     75.14% # Class of committed instruction. (Count)
system.cpu.commitStats0.committedInstType::SimdPredAlu            0      0.00%     75.14% # Class of committed instruction. (Count)
system.cpu.commitStats0.committedInstType::Matrix            0      0.00%     75.14% # Class of committed instruction. (Count)
system.cpu.commitStats0.committedInstType::MatrixMov            0      0.00%     75.14% # Class of committed instruction. (Count)
system.cpu.commitStats0.committedInstType::MatrixOP            0      0.00%     75.14% # Class of committed instruction. (Count)
system.cpu.commitStats0.committedInstType::MemRead        25158      0.98%     76.12% # Class of committed instruction. (Count)
system.cpu.commitStats0.committedInstType::MemWrite        12418      0.48%     76.60% # Class of committed instruction. (Count)
system.cpu.commitStats0.committedInstType::FloatMemRead       201070      7.81%     84.41% # Class of committed instruction. (Count)
system.cpu.commitStats0.committedInstType::FloatMemWrite       401158     15.59%    100.00% # Class of committed instruction. (Count)
system.cpu.commitStats0.committedInstType::IprAccess            0      0.00%    100.00% # Class of committed instruction. (Count)
system.cpu.commitStats0.committedInstType::InstPrefetch            0      0.00%    100.00% # Class of committed instruction. (Count)
system.cpu.commitStats0.committedInstType::VectorUnitStrideLoad            0      0.00%    100.00% # Class of committed instruction. (Count)
system.cpu.commitStats0.committedInstType::VectorUnitStrideStore            0      0.00%    100.00% # Class of committed instruction. (Count)
system.cpu.commitStats0.committedInstType::VectorUnitStrideMaskLoad            0      0.00%    100.00% # Class of committed instruction. (Count)
system.cpu.commitStats0.committedInstType::VectorUnitStrideMaskStore            0      0.00%    100.00% # Class of committed instruction. (Count)
system.cpu.commitStats0.committedInstType::VectorStridedLoad            0      0.00%    100.00% # Class of committed instruction. (Count)
system.cpu.commitStats0.committedInstType::VectorStridedStore            0      0.00%    100.00% # Class of committed instruction. (Count)
system.cpu.commitStats0.committedInstType::VectorIndexedLoad            0      0.00%    100.00% # Class of committed instruction. (Count)
system.cpu.commitStats0.committedInstType::VectorIndexedStore            0      0.00%    100.00% # Class of committed instruction. (Count)
system.cpu.commitStats0.committedInstType::VectorUnitStrideFaultOnlyFirstLoad            0      0.00%    100.00% # Class of committed instruction. (Count)
system.cpu.commitStats0.committedInstType::VectorWholeRegisterLoad            0      0.00%    100.00% # Class of committed instruction. (Count)
system.cpu.commitStats0.committedInstType::VectorWholeRegisterStore            0      0.00%    100.00% # Class of committed instruction. (Count)
system.cpu.commitStats0.committedInstType::VectorIntegerArith            0      0.00%    100.00% # Class of committed instruction. (Count)
system.cpu.commitStats0.committedInstType::VectorFloatArith            0      0.00%    100.00% # Class of committed instruction. (Count)
system.cpu.commitStats0.committedInstType::VectorFloatConvert            0      0.00%    100.00% # Class of committed instruction. (Count)
system.cpu.commitStats0.committedInstType::VectorIntegerReduce            0      0.00%    100.00% # Class of committed instruction. (Count)
system.cpu.commitStats0.committedInstType::VectorFloatReduce            0      0.00%    100.00% # Class of committed instruction. (Count)
system.cpu.commitStats0.committedInstType::VectorMisc            0      0.00%    100.00% # Class of committed instruction. (Count)
system.cpu.commitStats0.committedInstType::VectorIntegerExtension            0      0.00%    100.00% # Class of committed instruction. (Count)
system.cpu.commitStats0.committedInstType::VectorConfig            0      0.00%    100.00% # Class of committed instruction. (Count)
system.cpu.commitStats0.committedInstType::total      2573877                       # Class of committed instruction. (Count)
system.cpu.commitStats0.committedControl::IsControl       233583                       # Class of control type instructions committed (Count)
system.cpu.commitStats0.committedControl::IsDirectControl       232276                       # Class of control type instructions committed (Count)
system.cpu.commitStats0.committedControl::IsIndirectControl         1271                       # Class of control type instructions committed (Count)
system.cpu.commitStats0.committedControl::IsCondControl       230689                       # Class of control type instructions committed (Count)
system.cpu.commitStats0.committedControl::IsUncondControl         2858                       # Class of control type instructions committed (Count)
system.cpu.commitStats0.committedControl::IsCall          934                       # Class of control type instructions committed (Count)
system.cpu.commitStats0.committedControl::IsReturn          929                       # Class of control type instructions committed (Count)
system.cpu.dcache.demandHits::cpu.data         492488                       # number of demand (read+write) hits (Count)
system.cpu.dcache.demandHits::total            492488                       # number of demand (read+write) hits (Count)
system.cpu.dcache.overallHits::cpu.data        492488                       # number of overall hits (Count)
system.cpu.dcache.overallHits::total           492488                       # number of overall hits (Count)
system.cpu.dcache.demandMisses::cpu.data       150710                       # number of demand (read+write) misses (Count)
system.cpu.dcache.demandMisses::total          150710                       # number of demand (read+write) misses (Count)
system.cpu.dcache.overallMisses::cpu.data       150710                       # number of overall misses (Count)
system.cpu.dcache.overallMisses::total         150710                       # number of overall misses (Count)
system.cpu.dcache.demandMissLatency::cpu.data   6548129000                       # number of demand (read+write) miss ticks (Tick)
system.cpu.dcache.demandMissLatency::total   6548129000                       # number of demand (read+write) miss ticks (Tick)
system.cpu.dcache.overallMissLatency::cpu.data   6548129000                       # number of overall miss ticks (Tick)
system.cpu.dcache.overallMissLatency::total   6548129000                       # number of overall miss ticks (Tick)
system.cpu.dcache.demandAccesses::cpu.data       643198                       # number of demand (read+write) accesses (Count)
system.cpu.dcache.demandAccesses::total        643198                       # number of demand (read+write) accesses (Count)
system.cpu.dcache.overallAccesses::cpu.data       643198                       # number of overall (read+write) accesses (Count)
system.cpu.dcache.overallAccesses::total       643198                       # number of overall (read+write) accesses (Count)
system.cpu.dcache.demandMissRate::cpu.data     0.234314                       # miss rate for demand accesses (Ratio)
system.cpu.dcache.demandMissRate::total      0.234314                       # miss rate for demand accesses (Ratio)
system.cpu.dcache.overallMissRate::cpu.data     0.234314                       # miss rate for overall accesses (Ratio)
system.cpu.dcache.overallMissRate::total     0.234314                       # miss rate for overall accesses (Ratio)
system.cpu.dcache.demandAvgMissLatency::cpu.data 43448.536925                       # average overall miss latency in ticks ((Tick/Count))
system.cpu.dcache.demandAvgMissLatency::total 43448.536925                       # average overall miss latency in ticks ((Tick/Count))
system.cpu.dcache.overallAvgMissLatency::cpu.data 43448.536925                       # average overall miss latency ((Tick/Count))
system.cpu.dcache.overallAvgMissLatency::total 43448.536925                       # average overall miss latency ((Tick/Count))
system.cpu.dcache.blockedCycles::no_mshrs         6956                       # number of cycles access was blocked (Cycle)
system.cpu.dcache.blockedCycles::no_targets            0                       # number of cycles access was blocked (Cycle)
system.cpu.dcache.blockedCauses::no_mshrs          282                       # number of times access was blocked (Count)
system.cpu.dcache.blockedCauses::no_targets            0                       # number of times access was blocked (Count)
[...]
system.mem_ctrl.dram.bwRead::cpu.inst        10700046                       # Total read bandwidth from this memory ((Byte/Second))
system.mem_ctrl.dram.bwRead::cpu.data       186622137                       # Total read bandwidth from this memory ((Byte/Second))
system.mem_ctrl.dram.bwRead::cpu.dcache.prefetcher    145643785                       # Total read bandwidth from this memory ((Byte/Second))
system.mem_ctrl.dram.bwRead::cpu.icache.prefetcher     24581879                       # Total read bandwidth from this memory ((Byte/Second))
system.mem_ctrl.dram.bwRead::l2cache.prefetcher   1679855825                       # Total read bandwidth from this memory ((Byte/Second))
system.mem_ctrl.dram.bwRead::total         2047403671                       # Total read bandwidth from this memory ((Byte/Second))
system.mem_ctrl.dram.bwInstRead::cpu.inst     10700046                       # Instruction read bandwidth from this memory ((Byte/Second))
system.mem_ctrl.dram.bwInstRead::total       10700046                       # Instruction read bandwidth from this memory ((Byte/Second))
system.mem_ctrl.dram.bwWrite::writebacks   1242565236                       # Write bandwidth from this memory ((Byte/Second))
system.mem_ctrl.dram.bwWrite::total        1242565236                       # Write bandwidth from this memory ((Byte/Second))
system.mem_ctrl.dram.bwTotal::writebacks   1242565236                       # Total bandwidth to/from this memory ((Byte/Second))
system.mem_ctrl.dram.bwTotal::cpu.inst       10700046                       # Total bandwidth to/from this memory ((Byte/Second))
system.mem_ctrl.dram.bwTotal::cpu.data      186622137                       # Total bandwidth to/from this memory ((Byte/Second))
system.mem_ctrl.dram.bwTotal::cpu.dcache.prefetcher    145643785                       # Total bandwidth to/from this memory ((Byte/Second))
system.mem_ctrl.dram.bwTotal::cpu.icache.prefetcher     24581879                       # Total bandwidth to/from this memory ((Byte/Second))
system.mem_ctrl.dram.bwTotal::l2cache.prefetcher   1679855825                       # Total bandwidth to/from this memory ((Byte/Second))
system.mem_ctrl.dram.bwTotal::total        3289968908                       # Total bandwidth to/from this memory ((Byte/Second))
system.mem_ctrl.dram.readBursts                 79792                       # Number of DRAM read bursts (Count)
system.mem_ctrl.dram.writeBursts                48404                       # Number of DRAM write bursts (Count)
system.mem_ctrl.dram.perBankRdBursts::0          5181                       # Per bank write bursts (Count)
system.mem_ctrl.dram.perBankRdBursts::1          5108                       # Per bank write bursts (Count)
system.mem_ctrl.dram.perBankRdBursts::2          4985                       # Per bank write bursts (Count)
system.mem_ctrl.dram.perBankRdBursts::3          5083                       # Per bank write bursts (Count)
system.mem_ctrl.dram.perBankRdBursts::4          4934                       # Per bank write bursts (Count)
system.mem_ctrl.dram.perBankRdBursts::5          5082                       # Per bank write bursts (Count)
system.mem_ctrl.dram.perBankRdBursts::6          5056                       # Per bank write bursts (Count)
system.mem_ctrl.dram.perBankRdBursts::7          4906                       # Per bank write bursts (Count)
system.mem_ctrl.dram.perBankRdBursts::8          4916                       # Per bank write bursts (Count)
system.mem_ctrl.dram.perBankRdBursts::9          4806                       # Per bank write bursts (Count)
system.mem_ctrl.dram.perBankRdBursts::10         4799                       # Per bank write bursts (Count)
system.mem_ctrl.dram.perBankRdBursts::11         4893                       # Per bank write bursts (Count)
system.mem_ctrl.dram.perBankRdBursts::12         4958                       # Per bank write bursts (Count)
system.mem_ctrl.dram.perBankRdBursts::13         4921                       # Per bank write bursts (Count)
system.mem_ctrl.dram.perBankRdBursts::14         4997                       # Per bank write bursts (Count)
system.mem_ctrl.dram.perBankRdBursts::15         5167                       # Per bank write bursts (Count)
system.mem_ctrl.dram.perBankWrBursts::0          3192                       # Per bank write bursts (Count)
system.mem_ctrl.dram.perBankWrBursts::1          3094                       # Per bank write bursts (Count)
system.mem_ctrl.dram.perBankWrBursts::2          3030                       # Per bank write bursts (Count)
system.mem_ctrl.dram.perBankWrBursts::3          3002                       # Per bank write bursts (Count)
system.mem_ctrl.dram.perBankWrBursts::4          2946                       # Per bank write bursts (Count)
system.mem_ctrl.dram.perBankWrBursts::5          3121                       # Per bank write bursts (Count)
system.mem_ctrl.dram.perBankWrBursts::6          3016                       # Per bank write bursts (Count)
system.mem_ctrl.dram.perBankWrBursts::7          2944                       # Per bank write bursts (Count)
system.mem_ctrl.dram.perBankWrBursts::8          2950                       # Per bank write bursts (Count)
system.mem_ctrl.dram.perBankWrBursts::9          2991                       # Per bank write bursts (Count)
system.mem_ctrl.dram.perBankWrBursts::10         2958                       # Per bank write bursts (Count)
system.mem_ctrl.dram.perBankWrBursts::11         3080                       # Per bank write bursts (Count)
system.mem_ctrl.dram.perBankWrBursts::12         2998                       # Per bank write bursts (Count)
system.mem_ctrl.dram.perBankWrBursts::13         2955                       # Per bank write bursts (Count)
system.mem_ctrl.dram.perBankWrBursts::14         3012                       # Per bank write bursts (Count)
system.mem_ctrl.dram.perBankWrBursts::15         3115                       # Per bank write bursts (Count)
system.mem_ctrl.dram.totQLat                984977813                       # Total ticks spent queuing (Tick)
system.mem_ctrl.dram.totBusLat              398960000                       # Total ticks spent in databus transfers (Tick)
system.mem_ctrl.dram.totMemAccLat          2481077813                       # Total ticks spent from burst creation until serviced by the DRAM (Tick)
system.mem_ctrl.dram.avgQLat                 12344.32                       # Average queueing delay per DRAM burst ((Tick/Count))
system.mem_ctrl.dram.avgBusLat                5000.00                       # Average bus latency per DRAM burst ((Tick/Count))
system.mem_ctrl.dram.avgMemAccLat            31094.32                       # Average memory access latency per DRAM burst ((Tick/Count))
system.mem_ctrl.dram.readRowHits                73424                       # Number of row buffer hits during reads (Count)
system.mem_ctrl.dram.writeRowHits               44795                       # Number of row buffer hits during writes (Count)
system.mem_ctrl.dram.readRowHitRate             92.02                       # Row buffer hit rate for reads (Ratio)
system.mem_ctrl.dram.writeRowHitRate            92.54                       # Row buffer hit rate for writes (Ratio)
system.mem_ctrl.dram.bytesPerActivate::samples         9968                       # Bytes accessed per row activation (Byte)
system.mem_ctrl.dram.bytesPerActivate::mean   822.735152                       # Bytes accessed per row activation (Byte)
system.mem_ctrl.dram.bytesPerActivate::gmean   708.047720                       # Bytes accessed per row activation (Byte)
system.mem_ctrl.dram.bytesPerActivate::stdev   313.088795                       # Bytes accessed per row activation (Byte)
system.mem_ctrl.dram.bytesPerActivate::0-127          258      2.59%      2.59% # Bytes accessed per row activation (Byte)
system.mem_ctrl.dram.bytesPerActivate::128-255          600      6.02%      8.61% # Bytes accessed per row activation (Byte)
system.mem_ctrl.dram.bytesPerActivate::256-383          696      6.98%     15.59% # Bytes accessed per row activation (Byte)
system.mem_ctrl.dram.bytesPerActivate::384-511          386      3.87%     19.46% # Bytes accessed per row activation (Byte)
system.mem_ctrl.dram.bytesPerActivate::512-639          380      3.81%     23.27% # Bytes accessed per row activation (Byte)
system.mem_ctrl.dram.bytesPerActivate::640-767          573      5.75%     29.02% # Bytes accessed per row activation (Byte)
system.mem_ctrl.dram.bytesPerActivate::768-895          332      3.33%     32.35% # Bytes accessed per row activation (Byte)
system.mem_ctrl.dram.bytesPerActivate::896-1023          410      4.11%     36.47% # Bytes accessed per row activation (Byte)
system.mem_ctrl.dram.bytesPerActivate::1024-1151         6333     63.53%    100.00% # Bytes accessed per row activation (Byte)
system.mem_ctrl.dram.bytesPerActivate::total         9968                       # Bytes accessed per row activation (Byte)
system.mem_ctrl.dram.dramBytesRead            5106688                       # Total bytes read (Byte)
system.mem_ctrl.dram.dramBytesWritten         3097856                       # Total bytes written (Byte)
system.mem_ctrl.dram.avgRdBW              2047.429331                       # Average DRAM read bandwidth in MiBytes/s ((Byte/Second))
system.mem_ctrl.dram.avgWrBW              1242.026385                       # Average DRAM write bandwidth in MiBytes/s ((Byte/Second))
system.mem_ctrl.dram.peakBW                  12800.00                       # Theoretical peak bandwidth in MiByte/s ((Byte/Second))
system.mem_ctrl.dram.busUtil                    25.70                       # Data bus utilization in percentage (Ratio)
system.mem_ctrl.dram.busUtilRead                16.00                       # Data bus utilization in percentage for reads (Ratio)
system.mem_ctrl.dram.busUtilWrite                9.70                       # Data bus utilization in percentage for writes (Ratio)
system.mem_ctrl.dram.pageHitRate                92.22                       # Row buffer hit rate, read and write combined (Ratio)
system.mem_ctrl.dram.power_state.pwrStateResidencyTicks::UNDEFINED   2494195000                       # Cumulative time (in ticks) in various power states (Tick)
system.mem_ctrl.dram.rank0.actEnergy         36342600                       # Energy for activate commands per rank (pJ) (Joule)
system.mem_ctrl.dram.rank0.preEnergy         19301370                       # Energy for precharge commands per rank (pJ) (Joule)
system.mem_ctrl.dram.rank0.readEnergy       287991900                       # Energy for read commands per rank (pJ) (Joule)
system.mem_ctrl.dram.rank0.writeEnergy      127080900                       # Energy for write commands per rank (pJ) (Joule)
system.mem_ctrl.dram.rank0.refreshEnergy 196684800.000000                       # Energy for refresh commands per rank (pJ) (Joule)
system.mem_ctrl.dram.rank0.actBackEnergy    762884010                       # Energy for active background per rank (pJ) (Joule)
system.mem_ctrl.dram.rank0.preBackEnergy    315342240                       # Energy for precharge background per rank (pJ) (Joule)
system.mem_ctrl.dram.rank0.actPowerDownEnergy            0                       # Energy for active power-down per rank (pJ) (Joule)
system.mem_ctrl.dram.rank0.prePowerDownEnergy            0                       # Energy for precharge power-down per rank (pJ) (Joule)
system.mem_ctrl.dram.rank0.selfRefreshEnergy            0                       # Energy for self refresh per rank (pJ) (Joule)
system.mem_ctrl.dram.rank0.totalEnergy     1745627820                       # Total energy per rank (pJ) (Joule)
system.mem_ctrl.dram.rank0.averagePower    699.876241                       # Core power per rank (mW) (Watt)
system.mem_ctrl.dram.rank0.totalIdleTime            0                       # Total Idle time Per DRAM Rank (Tick)
system.mem_ctrl.dram.rank0.pwrStateTime::IDLE    801451763                       # Time in different power states (Tick)
system.mem_ctrl.dram.rank0.pwrStateTime::REF     83200000                       # Time in different power states (Tick)
system.mem_ctrl.dram.rank0.pwrStateTime::SREF            0                       # Time in different power states (Tick)
system.mem_ctrl.dram.rank0.pwrStateTime::PRE_PDN            0                       # Time in different power states (Tick)
system.mem_ctrl.dram.rank0.pwrStateTime::ACT   1609543237                       # Time in different power states (Tick)
system.mem_ctrl.dram.rank0.pwrStateTime::ACT_PDN            0                       # Time in different power states (Tick)
system.mem_ctrl.dram.rank1.actEnergy         34893180                       # Energy for activate commands per rank (pJ) (Joule)
system.mem_ctrl.dram.rank1.preEnergy         18527190                       # Energy for precharge commands per rank (pJ) (Joule)
system.mem_ctrl.dram.rank1.readEnergy       281722980                       # Energy for read commands per rank (pJ) (Joule)
system.mem_ctrl.dram.rank1.writeEnergy      125587980                       # Energy for write commands per rank (pJ) (Joule)
system.mem_ctrl.dram.rank1.refreshEnergy 196684800.000000                       # Energy for refresh commands per rank (pJ) (Joule)
system.mem_ctrl.dram.rank1.actBackEnergy    750370230                       # Energy for active background per rank (pJ) (Joule)
system.mem_ctrl.dram.rank1.preBackEnergy    325880160                       # Energy for precharge background per rank (pJ) (Joule)
system.mem_ctrl.dram.rank1.actPowerDownEnergy            0                       # Energy for active power-down per rank (pJ) (Joule)
system.mem_ctrl.dram.rank1.prePowerDownEnergy            0                       # Energy for precharge power-down per rank (pJ) (Joule)
system.mem_ctrl.dram.rank1.selfRefreshEnergy            0                       # Energy for self refresh per rank (pJ) (Joule)
system.mem_ctrl.dram.rank1.totalEnergy     1733666520                       # Total energy per rank (pJ) (Joule)
system.mem_ctrl.dram.rank1.averagePower    695.080585                       # Core power per rank (mW) (Watt)
system.mem_ctrl.dram.rank1.totalIdleTime            0                       # Total Idle time Per DRAM Rank (Tick)
system.mem_ctrl.dram.rank1.pwrStateTime::IDLE    829221009                       # Time in different power states (Tick)
system.mem_ctrl.dram.rank1.pwrStateTime::REF     83200000                       # Time in different power states (Tick)
system.mem_ctrl.dram.rank1.pwrStateTime::SREF            0                       # Time in different power states (Tick)
system.mem_ctrl.dram.rank1.pwrStateTime::PRE_PDN            0                       # Time in different power states (Tick)
system.mem_ctrl.dram.rank1.pwrStateTime::ACT   1581773991                       # Time in different power states (Tick)
system.mem_ctrl.dram.rank1.pwrStateTime::ACT_PDN            0                       # Time in different power states (Tick)
system.mem_ctrl.power_state.pwrStateResidencyTicks::UNDEFINED   2494195000                       # Cumulative time (in ticks) in various power states (Tick)
system.membus.transDist::ReadResp               78838                       # Transaction distribution (Count)
system.membus.transDist::WritebackDirty         48425                       # Transaction distribution (Count)
system.membus.transDist::CleanEvict             22544                       # Transaction distribution (Count)
system.membus.transDist::ReadExReq                952                       # Transaction distribution (Count)
system.membus.transDist::ReadExResp               952                       # Transaction distribution (Count)
system.membus.transDist::ReadSharedReq          78840                       # Transaction distribution (Count)
system.membus.pktCount_system.l2cache.mem_side_port::system.mem_ctrl.port       230551                       # Packet count per connected requestor and responder (Count)
system.membus.pktCount_system.l2cache.mem_side_port::total       230551                       # Packet count per connected requestor and responder (Count)
system.membus.pktCount::total                  230551                       # Packet count per connected requestor and responder (Count)
system.membus.pktSize_system.l2cache.mem_side_port::system.mem_ctrl.port      8205760                       # Cumulative packet size per connected requestor and responder (Byte)
system.membus.pktSize_system.l2cache.mem_side_port::total      8205760                       # Cumulative packet size per connected requestor and responder (Byte)
system.membus.pktSize::total                  8205760                       # Cumulative packet size per connected requestor and responder (Byte)
system.membus.snoops                                0                       # Total snoops (Count)
system.membus.snoopTraffic                          0                       # Total snoop traffic (Byte)
system.membus.snoopFanout::samples              79792                       # Request fanout histogram (Count)
system.membus.snoopFanout::mean                     0                       # Request fanout histogram (Count)
system.membus.snoopFanout::stdev                    0                       # Request fanout histogram (Count)
system.membus.snoopFanout::underflows               0      0.00%      0.00% # Request fanout histogram (Count)
system.membus.snoopFanout::0                    79792    100.00%    100.00% # Request fanout histogram (Count)
system.membus.snoopFanout::1                        0      0.00%    100.00% # Request fanout histogram (Count)
system.membus.snoopFanout::overflows                0      0.00%    100.00% # Request fanout histogram (Count)
system.membus.snoopFanout::min_value                0                       # Request fanout histogram (Count)
system.membus.snoopFanout::max_value                0                       # Request fanout histogram (Count)
system.membus.snoopFanout::total                79792                       # Request fanout histogram (Count)
system.membus.power_state.pwrStateResidencyTicks::UNDEFINED   2494195000                       # Cumulative time (in ticks) in various power states (Tick)
system.membus.reqLayer2.occupancy           395051815                       # Layer occupancy (ticks) (Tick)
system.membus.reqLayer2.utilization               0.2                       # Layer utilization (Ratio)
system.membus.respLayer0.occupancy          418238989                       # Layer occupancy (ticks) (Tick)
system.membus.respLayer0.utilization              0.2                       # Layer utilization (Ratio)
system.membus.snoop_filter.totRequests         150761                       # Total number of requests made to the snoop filter. (Count)
system.membus.snoop_filter.hitSingleRequests        70970                       # Number of requests hitting in the snoop filter with a single holder of the requested data. (Count)
system.membus.snoop_filter.hitMultiRequests            0                       # Number of requests hitting in the snoop filter with multiple (>1) holders of the requested data. (Count)
system.membus.snoop_filter.totSnoops                0                       # Total number of snoops made to the snoop filter. (Count)
system.membus.snoop_filter.hitSingleSnoops            0                       # Number of snoops hitting in the snoop filter with a single holder of the requested data. (Count)
system.membus.snoop_filter.hitMultiSnoops            0                       # Number of snoops hitting in the snoop filter with multiple (>1) holders of the requested data. (Count)
system.workload.inst.arm                            0                       # number of arm instructions executed (Count)
system.workload.inst.quiesce                        0                       # number of quiesce instructions executed (Count)

---------- End Simulation Statistics   ----------
