
---------- Begin Simulation Statistics ----------
simSeconds                                   0.003129                       # Number of seconds simulated (Second)
simTicks                                   3129383000                       # Number of ticks simulated (Tick)
finalTick                                  3129383000                       # Number of ticks from beginning of simulation (restored from checkpoints and never reset) (Tick)
simFreq                                  1000000000000                       # The number of ticks per simulated second ((Tick/Second))
hostSeconds                                     12.15                       # Real time elapsed on the host (Second)
hostTickRate                                257473596                       # The number of ticks simulated per host second (ticks/s) ((Tick/Second))
hostMemory                                     719492                       # Number of bytes of host memory used (Byte)
simInsts                                      1390852                       # Number of instructions simulated (Count)
simOps                                        2573877                       # Number of ops (including micro ops) simulated (Count)
hostInstRate                                   114433                       # Simulator instruction rate (inst/s) ((Count/Second))
hostOpRate                                     211766                       # Simulator op (including micro ops) rate (op/s) ((Count/Second))
system.clk_domain.clock                          1000                       # Clock period in ticks (Tick)
system.clk_domain.voltage_domain.voltage            1                       # Voltage in Volts (Volt)
system.cpu.numCycles                          3129384                       # Number of cpu cycles simulated (Cycle)
system.cpu.cpi                               2.249976                       # CPI: cycles per instruction (core level) ((Cycle/Count))
system.cpu.ipc                               0.444449                       # IPC: instructions per cycle (core level) ((Count/Cycle))
system.cpu.numWorkItemsStarted                      0                       # Number of work items this cpu started (Count)
system.cpu.numWorkItemsCompleted                    0                       # Number of work items this cpu completed (Count)
system.cpu.instsAdded                         2726529                       # Number of instructions added to the IQ (excludes non-spec) (Count)
system.cpu.nonSpecInstsAdded                      193                       # Number of non-speculative instructions added to the IQ (Count)
system.cpu.instsIssued                        2737089                       # Number of instructions issued (Count)
system.cpu.squashedInstsIssued                   1367                       # Number of squashed instructions issued (Count)
system.cpu.squashedInstsExamined               152835                       # Number of squashed instructions iterated over during squash; mainly for profiling (Count)
system.cpu.squashedOperandsExamined            231077                       # Number of squashed operands that are examined and possibly removed from graph (Count)
system.cpu.squashedNonSpecRemoved                 103                       # Number of squashed non-spec instructions that were removed (Count)
system.cpu.numIssuedDist::samples             3089384                       # Number of insts issued each cycle (Count)
system.cpu.numIssuedDist::mean               0.885966                       # Number of insts issued each cycle (Count)
system.cpu.numIssuedDist::stdev              1.377359                       # Number of insts issued each cycle (Count)
system.cpu.numIssuedDist::underflows                0      0.00%      0.00% # Number of insts issued each cycle (Count)
system.cpu.numIssuedDist::0                   1995783     64.60%     64.60% # Number of insts issued each cycle (Count)
system.cpu.numIssuedDist::1                    283978      9.19%     73.79% # Number of insts issued each cycle (Count)
system.cpu.numIssuedDist::2                    272805      8.83%     82.62% # Number of insts issued each cycle (Count)
system.cpu.numIssuedDist::3                    239771      7.76%     90.38% # Number of insts issued each cycle (Count)
system.cpu.numIssuedDist::4                    297047      9.62%    100.00% # Number of insts issued each cycle (Count)
system.cpu.numIssuedDist::overflows                 0      0.00%    100.00% # Number of insts issued each cycle (Count)
system.cpu.numIssuedDist::min_value                 0                       # Number of insts issued each cycle (Count)
system.cpu.numIssuedDist::max_value                 4                       # Number of insts issued each cycle (Count)
system.cpu.numIssuedDist::total               3089384                       # Number of insts issued each cycle (Count)
system.cpu.statFuBusy::No_OpClass                   0                       # attempts to use FU when none available (Count)
system.cpu.statFuBusy::IntAlu                       0                       # attempts to use FU when none available (Count)
system.cpu.statFuBusy::IntMult                      0                       # attempts to use FU when none available (Count)
system.cpu.statFuBusy::IntDiv                       0                       # attempts to use FU when none available (Count)
system.cpu.statFuBusy::FloatAdd                     0                       # attempts to use FU when none available (Count)
system.cpu.statFuBusy::FloatCmp                     0                       # attempts to use FU when none available (Count)
system.cpu.statFuBusy::FloatCvt                     0                       # attempts to use FU when none available (Count)
system.cpu.statFuBusy::FloatMult                    0                       # attempts to use FU when none available (Count)
system.cpu.statFuBusy::FloatMultAcc                 0                       # attempts to use FU when none available (Count)
system.cpu.statFuBusy::FloatDiv                     0                       # attempts to use FU when none available (Count)
system.cpu.statFuBusy::FloatMisc                    0                       # attempts to use FU when none available (Count)
system.cpu.statFuBusy::FloatSqrt                    0                       # attempts to use FU when none available (Count)
system.cpu.statFuBusy::SimdAdd                      0                       # attempts to use FU when none available (Count)
system.cpu.statFuBusy::SimdAddAcc                   0                       # attempts to use FU when none available (Count)
system.cpu.statFuBusy::SimdAlu                      0                       # attempts to use FU when none available (Count)
system.cpu.statFuBusy::SimdCmp                      0                       # attempts to use FU when none available (Count)
system.cpu.statFuBusy::SimdCvt                      0                       # attempts to use FU when none available (Count)
system.cpu.statFuBusy::SimdMisc                     0                       # attempts to use FU when none available (Count)
system.cpu.statFuBusy::SimdMult                     0                       # attempts to use FU when none available (Count)
system.cpu.statFuBusy::SimdMultAcc                  0                       # attempts to use FU when none available (Count)
system.cpu.statFuBusy::SimdMatMultAcc               0                       # attempts to use FU when none available (Count)
system.cpu.statFuBusy::SimdShift                    0                       # attempts to use FU when none available (Count)
system.cpu.statFuBusy::SimdShiftAcc                 0                       # attempts to use FU when none available (Count)
system.cpu.statFuBusy::SimdDiv                      0                       # attempts to use FU when none available (Count)
system.cpu.statFuBusy::SimdSqrt                     0                       # attempts to use FU when none available (Count)
system.cpu.statFuBusy::SimdFloatAdd                 0                       # attempts to use FU when none available (Count)
system.cpu.statFuBusy::SimdFloatAlu                 0                       # attempts to use FU when none available (Count)
system.cpu.statFuBusy::SimdFloatCmp                 0                       # attempts to use FU when none available (Count)
system.cpu.statFuBusy::SimdFloatCvt                 0                       # attempts to use FU when none available (Count)
system.cpu.statFuBusy::SimdFloatDiv                 0                       # attempts to use FU when none available (Count)
system.cpu.statFuBusy::SimdFloatMisc                0                       # attempts to use FU when none available (Count)
system.cpu.statFuBusy::SimdFloatMult                0                       # attempts to use FU when none available (Count)
system.cpu.statFuBusy::SimdFloatMultAcc             0                       # attempts to use FU when none available (Count)
system.cpu.statFuBusy::SimdFloatMatMultAcc            0                       # attempts to use FU when none available (Count)
system.cpu.statFuBusy::SimdFloatSqrt                0                       # attempts to use FU when none available (Count)
system.cpu.statFuBusy::SimdReduceAdd                0                       # attempts to use FU when none available (Count)
system.cpu.statFuBusy::SimdReduceAlu                0                       # attempts to use FU when none available (Count)
system.cpu.statFuBusy::SimdReduceCmp                0                       # attempts to use FU when none available (Count)
system.cpu.statFuBusy::SimdFloatReduceAdd            0                       # attempts to use FU when none available (Count)
system.cpu.statFuBusy::SimdFloatReduceCmp            0                       # attempts to use FU when none available (Count)
system.cpu.statFuBusy::SimdAes                      0                       # attempts to use FU when none available (Count)
system.cpu.statFuBusy::SimdAesMix                   0                       # attempts to use FU when none available (Count)
system.cpu.statFuBusy::SimdSha1Hash                 0                       # attempts to use FU when none available (Count)
system.cpu.statFuBusy::SimdSha1Hash2                0                       # attempts to use FU when none available (Count)
system.cpu.statFuBusy::SimdSha256Hash               0                       # attempts to use FU when none available (Count)
system.cpu.statFuBusy::SimdSha256Hash2              0                       # attempts to use FU when none available (Count)
system.cpu.statFuBusy::SimdShaSigma2                0                       # attempts to use FU when none available (Count)
system.cpu.statFuBusy::SimdShaSigma3                0                       # attempts to use FU when none available (Count)
system.cpu.statFuBusy::SimdPredAlu                  0                       # attempts to use FU when none available (Count)
system.cpu.statFuBusy::Matrix                       0                       # attempts to use FU when none available (Count)
system.cpu.statFuBusy::MatrixMov                    0                       # attempts to use FU when none available (Count)
system.cpu.statFuBusy::MatrixOP                     0                       # attempts to use FU when none available (Count)
system.cpu.statFuBusy::MemRead                      0                       # attempts to use FU when none available (Count)
system.cpu.statFuBusy::MemWrite                     0                       # attempts to use FU when none available (Count)
system.cpu.statFuBusy::FloatMemRead                 0                       # attempts to use FU when none available (Count)
system.cpu.statFuBusy::FloatMemWrite                0                       # attempts to use FU when none available (Count)
system.cpu.statFuBusy::IprAccess                    0                       # attempts to use FU when none available (Count)
system.cpu.statFuBusy::InstPrefetch                 0                       # attempts to use FU when none available (Count)
system.cpu.statFuBusy::VectorUnitStrideLoad            0                       # attempts to use FU when none available (Count)
system.cpu.statFuBusy::VectorUnitStrideStore            0                       # attempts to use FU when none available (Count)
system.cpu.statFuBusy::VectorUnitStrideMaskLoad            0                       # attempts to use FU when none available (Count)
system.cpu.statFuBusy::VectorUnitStrideMaskStore            0                       # attempts to use FU when none available (Count)
system.cpu.statFuBusy::VectorStridedLoad            0                       # attempts to use FU when none available (Count)
system.cpu.statFuBusy::VectorStridedStore            0                       # attempts to use FU when none available (Count)
system.cpu.statFuBusy::VectorIndexedLoad            0                       # attempts to use FU when none available (Count)
system.cpu.statFuBusy::VectorIndexedStore            0                       # attempts to use FU when none available (Count)
system.cpu.statFuBusy::VectorUnitStrideFaultOnlyFirstLoad            0                       # attempts to use FU when none available (Count)
system.cpu.statFuBusy::VectorWholeRegisterLoad            0                       # attempts to use FU when none available (Count)
system.cpu.statFuBusy::VectorWholeRegisterStore            0                       # attempts to use FU when none available (Count)
system.cpu.statFuBusy::VectorIntegerArith            0                       # attempts to use FU when none available (Count)
system.cpu.statFuBusy::VectorFloatArith             0                       # attempts to use FU when none available (Count)
system.cpu.statFuBusy::VectorFloatConvert            0                       # attempts to use FU when none available (Count)
system.cpu.statFuBusy::VectorIntegerReduce            0                       # attempts to use FU when none available (Count)
system.cpu.statFuBusy::VectorFloatReduce            0                       # attempts to use FU when none available (Count)
system.cpu.statFuBusy::VectorMisc                   0                       # attempts to use FU when none available (Count)
system.cpu.statFuBusy::VectorIntegerExtension            0                       # attempts to use FU when none available (Count)
system.cpu.statFuBusy::VectorConfig                 0                       # attempts to use FU when none available (Count)
system.cpu.statIssuedInstType_0::No_OpClass         3112      0.11%      0.11% # Number of instructions issued per FU type, per thread (Count)
system.cpu.statIssuedInstType_0::IntAlu       1714645     62.64%     62.76% # Number of instructions issued per FU type, per thread (Count)
system.cpu.statIssuedInstType_0::IntMult          859      0.03%     62.79% # Number of instructions issued per FU type, per thread (Count)
system.cpu.statIssuedInstType_0::IntDiv          1631      0.06%     62.85% # Number of instructions issued per FU type, per thread (Count)
system.cpu.statIssuedInstType_0::FloatAdd       100765      3.68%     66.53% # Number of instructions issued per FU type, per thread (Count)
system.cpu.statIssuedInstType_0::FloatCmp            0      0.00%     66.53% # Number of instructions issued per FU type, per thread (Count)
system.cpu.statIssuedInstType_0::FloatCvt            0      0.00%     66.53% # Number of instructions issued per FU type, per thread (Count)
system.cpu.statIssuedInstType_0::FloatMult            0      0.00%     66.53% # Number of instructions issued per FU type, per thread (Count)
system.cpu.statIssuedInstType_0::FloatMultAcc            0      0.00%     66.53% # Number of instructions issued per FU type, per thread (Count)
system.cpu.statIssuedInstType_0::FloatDiv            0      0.00%     66.53% # Number of instructions issued per FU type, per thread (Count)
system.cpu.statIssuedInstType_0::FloatMisc            0      0.00%     66.53% # Number of instructions issued per FU type, per thread (Count)
system.cpu.statIssuedInstType_0::FloatSqrt            0      0.00%     66.53% # Number of instructions issued per FU type, per thread (Count)
system.cpu.statIssuedInstType_0::SimdAdd          489      0.02%     66.55% # Number of instructions issued per FU type, per thread (Count)
system.cpu.statIssuedInstType_0::SimdAddAcc            0      0.00%     66.55% # Number of instructions issued per FU type, per thread (Count)
system.cpu.statIssuedInstType_0::SimdAlu         1609      0.06%     66.61% # Number of instructions issued per FU type, per thread (Count)
system.cpu.statIssuedInstType_0::SimdCmp            2      0.00%     66.61% # Number of instructions issued per FU type, per thread (Count)
system.cpu.statIssuedInstType_0::SimdCvt         1191      0.04%     66.65% # Number of instructions issued per FU type, per thread (Count)
system.cpu.statIssuedInstType_0::SimdMisc         1107      0.04%     66.69% # Number of instructions issued per FU type, per thread (Count)
system.cpu.statIssuedInstType_0::SimdMult            0      0.00%     66.69% # Number of instructions issued per FU type, per thread (Count)
system.cpu.statIssuedInstType_0::SimdMultAcc            0      0.00%     66.69% # Number of instructions issued per FU type, per thread (Count)
system.cpu.statIssuedInstType_0::SimdMatMultAcc            0      0.00%     66.69% # Number of instructions issued per FU type, per thread (Count)
system.cpu.statIssuedInstType_0::SimdShift          416      0.02%     66.71% # Number of instructions issued per FU type, per thread (Count)
system.cpu.statIssuedInstType_0::SimdShiftAcc            0      0.00%     66.71% # Number of instructions issued per FU type, per thread (Count)
system.cpu.statIssuedInstType_0::SimdDiv            0      0.00%     66.71% # Number of instructions issued per FU type, per thread (Count)
system.cpu.statIssuedInstType_0::SimdSqrt            0      0.00%     66.71% # Number of instructions issued per FU type, per thread (Count)
system.cpu.statIssuedInstType_0::SimdFloatAdd       100000      3.65%     70.36% # Number of instructions issued per FU type, per thread (Count)
system.cpu.statIssuedInstType_0::SimdFloatAlu            0      0.00%     70.36% # Number of instructions issued per FU type, per thread (Count)
system.cpu.statIssuedInstType_0::SimdFloatCmp            0      0.00%     70.36% # Number of instructions issued per FU type, per thread (Count)
system.cpu.statIssuedInstType_0::SimdFloatCvt            2      0.00%     70.36% # Number of instructions issued per FU type, per thread (Count)
system.cpu.statIssuedInstType_0::SimdFloatDiv            0      0.00%     70.36% # Number of instructions issued per FU type, per thread (Count)
system.cpu.statIssuedInstType_0::SimdFloatMisc            0      0.00%     70.36% # Number of instructions issued per FU type, per thread (Count)
system.cpu.statIssuedInstType_0::SimdFloatMult       100000      3.65%     74.01% # Number of instructions issued per FU type, per thread (Count)
system.cpu.statIssuedInstType_0::SimdFloatMultAcc            0      0.00%     74.01% # Number of instructions issued per FU type, per thread (Count)
system.cpu.statIssuedInstType_0::SimdFloatMatMultAcc            0      0.00%     74.01% # Number of instructions issued per FU type, per thread (Count)
system.cpu.statIssuedInstType_0::SimdFloatSqrt            0      0.00%     74.01% # Number of instructions issued per FU type, per thread (Count)
system.cpu.statIssuedInstType_0::SimdReduceAdd            0      0.00%     74.01% # Number of instructions issued per FU type, per thread (Count)
system.cpu.statIssuedInstType_0::SimdReduceAlu            0      0.00%     74.01% # Number of instructions issued per FU type, per thread (Count)
system.cpu.statIssuedInstType_0::SimdReduceCmp            0      0.00%     74.01% # Number of instructions issued per FU type, per thread (Count)
system.cpu.statIssuedInstType_0::SimdFloatReduceAdd            0      0.00%     74.01% # Number of instructions issued per FU type, per thread (Count)
system.cpu.statIssuedInstType_0::SimdFloatReduceCmp            0      0.00%     74.01% # Number of instructions issued per FU type, per thread (Count)
system.cpu.statIssuedInstType_0::SimdAes            0      0.00%     74.01% # Number of instructions issued per FU type, per thread (Count)
system.cpu.statIssuedInstType_0::SimdAesMix            0      0.00%     74.01% # Number of instructions issued per FU type, per thread (Count)
system.cpu.statIssuedInstType_0::SimdSha1Hash            0      0.00%     74.01% # Number of instructions issued per FU type, per thread (Count)
system.cpu.statIssuedInstType_0::SimdSha1Hash2            0      0.00%     74.01% # Number of instructions issued per FU type, per thread (Count)
system.cpu.statIssuedInstType_0::SimdSha256Hash            0      0.00%     74.01% # Number of instructions issued per FU type, per thread (Count)
system.cpu.statIssuedInstType_0::SimdSha256Hash2            0      0.00%     74.01% # Number of instructions issued per FU type, per thread (Count)
system.cpu.statIssuedInstType_0::SimdShaSigma2            0      0.00%     74.01% # Number of instructions issued per FU type, per thread (Count)
system.cpu.statIssuedInstType_0::SimdShaSigma3            0      0.00%     74.01% # Number of instructions issued per FU type, per thread (Count)
system.cpu.statIssuedInstType_0::SimdPredAlu            0      0.00%     74.01% # Number of instructions issued per FU type, per thread (Count)
system.cpu.statIssuedInstType_0::Matrix             0      0.00%     74.01% # Number of instructions issued per FU type, per thread (Count)
system.cpu.statIssuedInstType_0::MatrixMov            0      0.00%     74.01% # Number of instructions issued per FU type, per thread (Count)
system.cpu.statIssuedInstType_0::MatrixOP            0      0.00%     74.01% # Number of instructions issued per FU type, per thread (Count)
system.cpu.statIssuedInstType_0::MemRead        34051      1.24%     75.26% # Number of instructions issued per FU type, per thread (Count)
system.cpu.statIssuedInstType_0::MemWrite        16126      0.59%     75.85% # Number of instructions issued per FU type, per thread (Count)
system.cpu.statIssuedInstType_0::FloatMemRead       240815      8.80%     84.65% # Number of instructions issued per FU type, per thread (Count)
system.cpu.statIssuedInstType_0::FloatMemWrite       420269     15.35%    100.00% # Number of instructions issued per FU type, per thread (Count)
system.cpu.statIssuedInstType_0::IprAccess            0      0.00%    100.00% # Number of instructions issued per FU type, per thread (Count)
system.cpu.statIssuedInstType_0::InstPrefetch            0      0.00%    100.00% # Number of instructions issued per FU type, per thread (Count)
system.cpu.statIssuedInstType_0::VectorUnitStrideLoad            0      0.00%    100.00% # Number of instructions issued per FU type, per thread (Count)
system.cpu.statIssuedInstType_0::VectorUnitStrideStore            0      0.00%    100.00% # Number of instructions issued per FU type, per thread (Count)
system.cpu.statIssuedInstType_0::VectorUnitStrideMaskLoad            0      0.00%    100.00% # Number of instructions issued per FU type, per thread (Count)
system.cpu.statIssuedInstType_0::VectorUnitStrideMaskStore            0      0.00%    100.00% # Number of instructions issued per FU type, per thread (Count)
system.cpu.statIssuedInstType_0::VectorStridedLoad            0      0.00%    100.00% # Number of instructions issued per FU type, per thread (Count)
system.cpu.statIssuedInstType_0::VectorStridedStore            0      0.00%    100.00% # Number of instructions issued per FU type, per thread (Count)
system.cpu.statIssuedInstType_0::VectorIndexedLoad            0      0.00%    100.00% # Number of instructions issued per FU type, per thread (Count)
system.cpu.statIssuedInstType_0::VectorIndexedStore            0      0.00%    100.00% # Number of instructions issued per FU type, per thread (Count)
system.cpu.statIssuedInstType_0::VectorUnitStrideFaultOnlyFirstLoad            0      0.00%    100.00% # Number of instructions issued per FU type, per thread (Count)
system.cpu.statIssuedInstType_0::VectorWholeRegisterLoad            0      0.00%    100.00% # Number of instructions issued per FU type, per thread (Count)
system.cpu.statIssuedInstType_0::VectorWholeRegisterStore            0      0.00%    100.00% # Number of instructions issued per FU type, per thread (Count)
system.cpu.statIssuedInstType_0::VectorIntegerArith            0      0.00%    100.00% # Number of instructions issued per FU type, per thread (Count)
system.cpu.statIssuedInstType_0::VectorFloatArith            0      0.00%    100.00% # Number of instructions issued per FU type, per thread (Count)
system.cpu.statIssuedInstType_0::VectorFloatConvert            0      0.00%    100.00% # Number of instructions issued per FU type, per thread (Count)
system.cpu.statIssuedInstType_0::VectorIntegerReduce            0      0.00%    100.00% # Number of instructions issued per FU type, per thread (Count)
system.cpu.statIssuedInstType_0::VectorFloatReduce            0      0.00%    100.00% # Number of instructions issued per FU type, per thread (Count)
system.cpu.statIssuedInstType_0::VectorMisc            0      0.00%    100.00% # Number of instructions issued per FU type, per thread (Count)
system.cpu.statIssuedInstType_0::VectorIntegerExtension            0      0.00%    100.00% # Number of instructions issued per FU type, per thread (Count)
system.cpu.statIssuedInstType_0::VectorConfig            0      0.00%    100.00% # Number of instructions issued per FU type, per thread (Count)
system.cpu.statIssuedInstType_0::total        2737089                       # Number of instructions issued per FU type, per thread (Count)
system.cpu.issueRate                         0.874641                       # Inst issue rate ((Count/Cycle))
system.cpu.fuBusy                                   0                       # FU busy when requested (Count)
system.cpu.fuBusyRate                               0                       # FU busy rate (busy events/executed inst) ((Count/Count))
system.cpu.intInstQueueReads                  6630514                       # Number of integer instruction queue reads (Count)
system.cpu.intInstQueueWrites                 1925125                       # Number of integer instruction queue writes (Count)
system.cpu.intInstQueueWakeupAccesses         1761335                       # Number of integer instruction queue wakeup accesses (Count)
system.cpu.fpInstQueueReads                   1934411                       # Number of floating instruction queue reads (Count)
system.cpu.fpInstQueueWrites                   954488                       # Number of floating instruction queue writes (Count)
system.cpu.fpInstQueueWakeupAccesses           909855                       # Number of floating instruction queue wakeup accesses (Count)
system.cpu.vecInstQueueReads                        0                       # Number of vector instruction queue reads (Count)
system.cpu.vecInstQueueWrites                       0                       # Number of vector instruction queue writes (Count)
system.cpu.vecInstQueueWakeupAccesses               0                       # Number of vector instruction queue wakeup accesses (Count)
system.cpu.intAluAccesses                     1766889                       # Number of integer alu accesses (Count)
system.cpu.fpAluAccesses                       967088                       # Number of floating point alu accesses (Count)
system.cpu.vecAluAccesses                           0                       # Number of vector alu accesses (Count)
system.cpu.numSquashedInsts                      5778                       # Number of squashed instructions skipped in execute (Count)
system.cpu.numSwp                                   0                       # Number of swp insts executed (Count)
system.cpu.timesIdled                             981                       # Number of times that the entire CPU went into an idle state and unscheduled itself (Count)
system.cpu.idleCycles                           40000                       # Total number of cycles that the CPU has spent unscheduled due to idling (Cycle)
system.cpu.MemDepUnit__0.insertedLoads         238950                       # Number of loads inserted to the mem dependence unit. (Count)
system.cpu.MemDepUnit__0.insertedStores        438511                       # Number of stores inserted to the mem dependence unit. (Count)
system.cpu.MemDepUnit__0.conflictingLoads         1648                       # Number of conflicting loads. (Count)
system.cpu.MemDepUnit__0.conflictingStores         1816                       # Number of conflicting stores. (Count)
system.cpu.MemDepUnit__1.insertedLoads              0                       # Number of loads inserted to the mem dependence unit. (Count)
system.cpu.MemDepUnit__1.insertedStores             0                       # Number of stores inserted to the mem dependence unit. (Count)
system.cpu.MemDepUnit__1.conflictingLoads            0                       # Number of conflicting loads. (Count)
system.cpu.MemDepUnit__1.conflictingStores            0                       # Number of conflicting stores. (Count)
system.cpu.MemDepUnit__2.insertedLoads              0                       # Number of loads inserted to the mem dependence unit. (Count)
system.cpu.MemDepUnit__2.insertedStores             0                       # Number of stores inserted to the mem dependence unit. (Count)
system.cpu.MemDepUnit__2.conflictingLoads            0                       # Number of conflicting loads. (Count)
system.cpu.MemDepUnit__2.conflictingStores            0                       # Number of conflicting stores. (Count)
system.cpu.MemDepUnit__3.insertedLoads              0                       # Number of loads inserted to the mem dependence unit. (Count)
system.cpu.MemDepUnit__3.insertedStores             0                       # Number of stores inserted to the mem dependence unit. (Count)
system.cpu.MemDepUnit__3.conflictingLoads            0                       # Number of conflicting loads. (Count)
system.cpu.MemDepUnit__3.conflictingStores            0                       # Number of conflicting stores. (Count)
system.cpu.branchPred.lookups_0::NoBranch          409      0.16%      0.16% # Number of BP lookups (Count)
system.cpu.branchPred.lookups_0::Return          1577      0.61%      0.77% # Number of BP lookups (Count)
system.cpu.branchPred.lookups_0::CallDirect         1841      0.71%      1.48% # Number of BP lookups (Count)
system.cpu.branchPred.lookups_0::CallIndirect          232      0.09%      1.57% # Number of BP lookups (Count)
system.cpu.branchPred.lookups_0::DirectCond       251527     97.43%     99.00% # Number of BP lookups (Count)
system.cpu.branchPred.lookups_0::DirectUncond         1790      0.69%     99.69% # Number of BP lookups (Count)
system.cpu.branchPred.lookups_0::IndirectCond            0      0.00%     99.69% # Number of BP lookups (Count)
system.cpu.branchPred.lookups_0::IndirectUncond          794      0.31%    100.00% # Number of BP lookups (Count)
system.cpu.branchPred.lookups_0::total         258170                       # Number of BP lookups (Count)
system.cpu.branchPred.squashes_0::NoBranch          373      1.52%      1.52% # Number of branches that got squashed (completely removed) as an earlier branch was mispredicted. (Count)
system.cpu.branchPred.squashes_0::Return          648      2.64%      4.15% # Number of branches that got squashed (completely removed) as an earlier branch was mispredicted. (Count)
system.cpu.branchPred.squashes_0::CallDirect         1018      4.14%      8.29% # Number of branches that got squashed (completely removed) as an earlier branch was mispredicted. (Count)
system.cpu.branchPred.squashes_0::CallIndirect          121      0.49%      8.79% # Number of branches that got squashed (completely removed) as an earlier branch was mispredicted. (Count)
system.cpu.branchPred.squashes_0::DirectCond        20836     84.75%     93.54% # Number of branches that got squashed (completely removed) as an earlier branch was mispredicted. (Count)
system.cpu.branchPred.squashes_0::DirectUncond         1025      4.17%     97.71% # Number of branches that got squashed (completely removed) as an earlier branch was mispredicted. (Count)
system.cpu.branchPred.squashes_0::IndirectCond            0      0.00%     97.71% # Number of branches that got squashed (completely removed) as an earlier branch was mispredicted. (Count)
system.cpu.branchPred.squashes_0::IndirectUncond          563      2.29%    100.00% # Number of branches that got squashed (completely removed) as an earlier branch was mispredicted. (Count)
system.cpu.branchPred.squashes_0::total         24584                       # Number of branches that got squashed (completely removed) as an earlier branch was mispredicted. (Count)
system.cpu.branchPred.corrected_0::NoBranch           64      1.48%      1.48% # Number of branches that got corrected but not yet commited. Branches get corrected by decode or after execute. Also a branch misprediction can be detected out-of-order. Therefore, a corrected branch might not end up beeing committed in case an even earlier branch was mispredicted (Count)
system.cpu.branchPred.corrected_0::Return            5      0.12%      1.59% # Number of branches that got corrected but not yet commited. Branches get corrected by decode or after execute. Also a branch misprediction can be detected out-of-order. Therefore, a corrected branch might not end up beeing committed in case an even earlier branch was mispredicted (Count)
system.cpu.branchPred.corrected_0::CallDirect          346      7.98%      9.57% # Number of branches that got corrected but not yet commited. Branches get corrected by decode or after execute. Also a branch misprediction can be detected out-of-order. Therefore, a corrected branch might not end up beeing committed in case an even earlier branch was mispredicted (Count)
system.cpu.branchPred.corrected_0::CallIndirect          103      2.37%     11.94% # Number of branches that got corrected but not yet commited. Branches get corrected by decode or after execute. Also a branch misprediction can be detected out-of-order. Therefore, a corrected branch might not end up beeing committed in case an even earlier branch was mispredicted (Count)
system.cpu.branchPred.corrected_0::DirectCond         3290     75.84%     87.78% # Number of branches that got corrected but not yet commited. Branches get corrected by decode or after execute. Also a branch misprediction can be detected out-of-order. Therefore, a corrected branch might not end up beeing committed in case an even earlier branch was mispredicted (Count)
system.cpu.branchPred.corrected_0::DirectUncond          316      7.28%     95.07% # Number of branches that got corrected but not yet commited. Branches get corrected by decode or after execute. Also a branch misprediction can be detected out-of-order. Therefore, a corrected branch might not end up beeing committed in case an even earlier branch was mispredicted (Count)
system.cpu.branchPred.corrected_0::IndirectCond            0      0.00%     95.07% # Number of branches that got corrected but not yet commited. Branches get corrected by decode or after execute. Also a branch misprediction can be detected out-of-order. Therefore, a corrected branch might not end up beeing committed in case an even earlier branch was mispredicted (Count)
system.cpu.branchPred.corrected_0::IndirectUncond          214      4.93%    100.00% # Number of branches that got corrected but not yet commited. Branches get corrected by decode or after execute. Also a branch misprediction can be detected out-of-order. Therefore, a corrected branch might not end up beeing committed in case an even earlier branch was mispredicted (Count)
system.cpu.branchPred.corrected_0::total         4338                       # Number of branches that got corrected but not yet commited. Branches get corrected by decode or after execute. Also a branch misprediction can be detected out-of-order. Therefore, a corrected branch might not end up beeing committed in case an even earlier branch was mispredicted (Count)
system.cpu.branchPred.earlyResteers_0::NoBranch            0                       # Number of branches that got redirected after decode. (Count)
system.cpu.branchPred.earlyResteers_0::Return            0                       # Number of branches that got redirected after decode. (Count)
system.cpu.branchPred.earlyResteers_0::CallDirect            0                       # Number of branches that got redirected after decode. (Count)
system.cpu.branchPred.earlyResteers_0::CallIndirect            0                       # Number of branches that got redirected after decode. (Count)
system.cpu.branchPred.earlyResteers_0::DirectCond            0                       # Number of branches that got redirected after decode. (Count)
system.cpu.branchPred.earlyResteers_0::DirectUncond            0                       # Number of branches that got redirected after decode. (Count)
system.cpu.branchPred.earlyResteers_0::IndirectCond            0                       # Number of branches that got redirected after decode. (Count)
system.cpu.branchPred.earlyResteers_0::IndirectUncond            0                       # Number of branches that got redirected after decode. (Count)
system.cpu.branchPred.earlyResteers_0::total            0                       # Number of branches that got redirected after decode. (Count)
system.cpu.branchPred.committed_0::NoBranch           36      0.02%      0.02% # Number of branches finally committed  (Count)
system.cpu.branchPred.committed_0::Return          929      0.40%      0.41% # Number of branches finally committed  (Count)
system.cpu.branchPred.committed_0::CallDirect          823      0.35%      0.77% # Number of branches finally committed  (Count)
system.cpu.branchPred.committed_0::CallIndirect          111      0.05%      0.81% # Number of branches finally committed  (Count)
system.cpu.branchPred.committed_0::DirectCond       230689     98.76%     99.57% # Number of branches finally committed  (Count)
system.cpu.branchPred.committed_0::DirectUncond          764      0.33%     99.90% # Number of branches finally committed  (Count)
system.cpu.branchPred.committed_0::IndirectCond            0      0.00%     99.90% # Number of branches finally committed  (Count)
system.cpu.branchPred.committed_0::IndirectUncond          231      0.10%    100.00% # Number of branches finally committed  (Count)
system.cpu.branchPred.committed_0::total       233583                       # Number of branches finally committed  (Count)
system.cpu.branchPred.mispredicted_0::NoBranch           36      0.97%      0.97% # Number of committed branches that were mispredicted. (Count)
system.cpu.branchPred.mispredicted_0::Return            0      0.00%      0.97% # Number of committed branches that were mispredicted. (Count)
system.cpu.branchPred.mispredicted_0::CallDirect          209      5.62%      6.59% # Number of committed branches that were mispredicted. (Count)
system.cpu.branchPred.mispredicted_0::CallIndirect          100      2.69%      9.28% # Number of committed branches that were mispredicted. (Count)
system.cpu.branchPred.mispredicted_0::DirectCond         3062     82.38%     91.66% # Number of committed branches that were mispredicted. (Count)
system.cpu.branchPred.mispredicted_0::DirectUncond          162      4.36%     96.02% # Number of committed branches that were mispredicted. (Count)
system.cpu.branchPred.mispredicted_0::IndirectCond            0      0.00%     96.02% # Number of committed branches that were mispredicted. (Count)
system.cpu.branchPred.mispredicted_0::IndirectUncond          148      3.98%    100.00% # Number of committed branches that were mispredicted. (Count)
system.cpu.branchPred.mispredicted_0::total         3717                       # Number of committed branches that were mispredicted. (Count)
system.cpu.branchPred.targetProvider_0::NoTarget        24016      9.30%      9.30% # The component providing the target for taken branches (Count)
system.cpu.branchPred.targetProvider_0::BTB       232419     90.03%     99.33% # The component providing the target for taken branches (Count)
system.cpu.branchPred.targetProvider_0::RAS         1577      0.61%     99.94% # The component providing the target for taken branches (Count)
system.cpu.branchPred.targetProvider_0::Indirect          158      0.06%    100.00% # The component providing the target for taken branches (Count)
system.cpu.branchPred.targetProvider_0::total       258170                       # The component providing the target for taken branches (Count)
system.cpu.branchPred.targetWrong_0::NoBranch         3676     91.08%     91.08% # Number of branches where the target was incorrect or not available at prediction time. (Count)
system.cpu.branchPred.targetWrong_0::Return          325      8.05%     99.13% # Number of branches where the target was incorrect or not available at prediction time. (Count)
system.cpu.branchPred.targetWrong_0::CallDirect            5      0.12%     99.26% # Number of branches where the target was incorrect or not available at prediction time. (Count)
system.cpu.branchPred.targetWrong_0::CallIndirect           30      0.74%    100.00% # Number of branches where the target was incorrect or not available at prediction time. (Count)
system.cpu.branchPred.targetWrong_0::DirectCond            0      0.00%    100.00% # Number of branches where the target was incorrect or not available at prediction time. (Count)
system.cpu.branchPred.targetWrong_0::DirectUncond            0      0.00%    100.00% # Number of branches where the target was incorrect or not available at prediction time. (Count)
system.cpu.branchPred.targetWrong_0::IndirectCond            0      0.00%    100.00% # Number of branches where the target was incorrect or not available at prediction time. (Count)
system.cpu.branchPred.targetWrong_0::IndirectUncond            0      0.00%    100.00% # Number of branches where the target was incorrect or not available at prediction time. (Count)
system.cpu.branchPred.targetWrong_0::total         4036                       # Number of branches where the target was incorrect or not available at prediction time. (Count)
system.cpu.branchPred.condPredicted            251936                       # Number of conditional branches predicted (Count)
system.cpu.branchPred.condPredictedTaken       229673                       # Number of conditional branches predicted as taken (Count)
system.cpu.branchPred.condIncorrect              4338                       # Number of conditional branches incorrect (Count)
system.cpu.branchPred.predTakenBTBMiss            635                       # Number of branches predicted taken but missed in BTB (Count)
system.cpu.branchPred.NotTakenMispredicted         4022                       # Number branches predicted 'not taken' but turned out to be taken (Count)
system.cpu.branchPred.TakenMispredicted           316                       # Number branches predicted taken but are actually not taken (Count)
system.cpu.branchPred.BTBLookups               258170                       # Number of BTB lookups (Count)
system.cpu.branchPred.BTBUpdates                 3636                       # Number of BTB updates (Count)
system.cpu.branchPred.BTBHits                  242269                       # Number of BTB hits (Count)
system.cpu.branchPred.BTBHitRatio            0.938409                       # BTB Hit Ratio (Ratio)
system.cpu.branchPred.BTBMispredicted            1417                       # Number BTB mispredictions. No target found or target wrong (Count)
system.cpu.branchPred.indirectLookups            1026                       # Number of indirect predictor lookups. (Count)
system.cpu.branchPred.indirectHits                158                       # Number of indirect target hits. (Count)
system.cpu.branchPred.indirectMisses              868                       # Number of indirect misses. (Count)
system.cpu.branchPred.indirectMispredicted            0                       # Number of mispredicted indirect branches. (Count)
system.cpu.branchPred.btb.lookups::NoBranch          409      0.16%      0.16% # Number of BTB lookups (Count)
system.cpu.branchPred.btb.lookups::Return         1577      0.61%      0.77% # Number of BTB lookups (Count)
system.cpu.branchPred.btb.lookups::CallDirect         1841      0.71%      1.48% # Number of BTB lookups (Count)
system.cpu.branchPred.btb.lookups::CallIndirect          232      0.09%      1.57% # Number of BTB lookups (Count)
system.cpu.branchPred.btb.lookups::DirectCond       251527     97.43%     99.00% # Number of BTB lookups (Count)
system.cpu.branchPred.btb.lookups::DirectUncond         1790      0.69%     99.69% # Number of BTB lookups (Count)
system.cpu.branchPred.btb.lookups::IndirectCond            0      0.00%     99.69% # Number of BTB lookups (Count)
system.cpu.branchPred.btb.lookups::IndirectUncond          794      0.31%    100.00% # Number of BTB lookups (Count)
system.cpu.branchPred.btb.lookups::total       258170                       # Number of BTB lookups (Count)
system.cpu.branchPred.btb.misses::NoBranch          157      0.99%      0.99% # Number of BTB misses (Count)
system.cpu.branchPred.btb.misses::Return         1577      9.92%     10.90% # Number of BTB misses (Count)
system.cpu.branchPred.btb.misses::CallDirect          461      2.90%     13.80% # Number of BTB misses (Count)
system.cpu.branchPred.btb.misses::CallIndirect          232      1.46%     15.26% # Number of BTB misses (Count)
system.cpu.branchPred.btb.misses::DirectCond        12296     77.33%     92.59% # Number of BTB misses (Count)
system.cpu.branchPred.btb.misses::DirectUncond          384      2.41%     95.01% # Number of BTB misses (Count)
system.cpu.branchPred.btb.misses::IndirectCond            0      0.00%     95.01% # Number of BTB misses (Count)
system.cpu.branchPred.btb.misses::IndirectUncond          794      4.99%    100.00% # Number of BTB misses (Count)
system.cpu.branchPred.btb.misses::total         15901                       # Number of BTB misses (Count)
system.cpu.branchPred.btb.updates::NoBranch            0      0.00%      0.00% # Number of BTB updates (Count)
system.cpu.branchPred.btb.updates::Return            0      0.00%      0.00% # Number of BTB updates (Count)
system.cpu.branchPred.btb.updates::CallDirect          346      9.52%      9.52% # Number of BTB updates (Count)
system.cpu.branchPred.btb.updates::CallIndirect            0      0.00%      9.52% # Number of BTB updates (Count)
system.cpu.branchPred.btb.updates::DirectCond         2974     81.79%     91.31% # Number of BTB updates (Count)
system.cpu.branchPred.btb.updates::DirectUncond          316      8.69%    100.00% # Number of BTB updates (Count)
system.cpu.branchPred.btb.updates::IndirectCond            0      0.00%    100.00% # Number of BTB updates (Count)
system.cpu.branchPred.btb.updates::IndirectUncond            0      0.00%    100.00% # Number of BTB updates (Count)
system.cpu.branchPred.btb.updates::total         3636                       # Number of BTB updates (Count)
system.cpu.branchPred.btb.mispredict::NoBranch            0      0.00%      0.00% # Number of BTB mispredictions. No target found or target wrong. (Count)
system.cpu.branchPred.btb.mispredict::Return            0      0.00%      0.00% # Number of BTB mispredictions. No target found or target wrong. (Count)
system.cpu.branchPred.btb.mispredict::CallDirect          346      9.52%      9.52% # Number of BTB mispredictions. No target found or target wrong. (Count)
system.cpu.branchPred.btb.mispredict::CallIndirect            0      0.00%      9.52% # Number of BTB mispredictions. No target found or target wrong. (Count)
system.cpu.branchPred.btb.mispredict::DirectCond         2974     81.79%     91.31% # Number of BTB mispredictions. No target found or target wrong. (Count)
system.cpu.branchPred.btb.mispredict::DirectUncond          316      8.69%    100.00% # Number of BTB mispredictions. No target found or target wrong. (Count)
system.cpu.branchPred.btb.mispredict::IndirectCond            0      0.00%    100.00% # Number of BTB mispredictions. No target found or target wrong. (Count)
system.cpu.branchPred.btb.mispredict::IndirectUncond            0      0.00%    100.00% # Number of BTB mispredictions. No target found or target wrong. (Count)
system.cpu.branchPred.btb.mispredict::total         3636                       # Number of BTB mispredictions. No target found or target wrong. (Count)
system.cpu.branchPred.btb.power_state.pwrStateResidencyTicks::UNDEFINED   3129383000                       # Cumulative time (in ticks) in various power states (Tick)
system.cpu.branchPred.indirectBranchPred.lookups         1026                       # Number of lookups (Count)
system.cpu.branchPred.indirectBranchPred.hits          158                       # Number of hits of a tag (Count)
system.cpu.branchPred.indirectBranchPred.misses          868                       # Number of misses (Count)
system.cpu.branchPred.indirectBranchPred.targetRecords          317                       # Number of targets that where recorded/installed in the cache (Count)
system.cpu.branchPred.indirectBranchPred.indirectRecords         1343                       # Number of indirect branches/calls recorded in the indirect hist (Count)
system.cpu.branchPred.indirectBranchPred.speculativeOverflows            4                       # Number of times more than the allowed capacity for speculative branches/calls where in flight and destroy the path history (Count)
system.cpu.branchPred.ras.pushes                 2721                       # Number of times a PC was pushed onto the RAS (Count)
system.cpu.branchPred.ras.pops                   2716                       # Number of times a PC was poped from the RAS (Count)
system.cpu.branchPred.ras.squashes               1787                       # Number of times the stack operation was squashed due to wrong speculation. (Count)
system.cpu.branchPred.ras.used                    929                       # Number of times the RAS is the provider (Count)
system.cpu.branchPred.ras.correct                 929                       # Number of times the RAS is the provider and the prediction is correct (Count)
system.cpu.branchPred.ras.incorrect                 0                       # Number of times the RAS is the provider and the prediction is wrong (Count)
system.cpu.commit.commitSquashedInsts          147878                       # The number of squashed insts skipped by commit (Count)
system.cpu.commit.commitNonSpecStalls              90                       # The number of times commit has been forced to stall to communicate backwards (Count)
system.cpu.commit.branchMispredicts              4000                       # The number of times a branch was mispredicted (Count)
system.cpu.commit.numCommittedDist::samples      3049428                       # Number of insts commited each cycle (Count)
system.cpu.commit.numCommittedDist::mean     0.844052                       # Number of insts commited each cycle (Count)
system.cpu.commit.numCommittedDist::stdev     1.424084                       # Number of insts commited each cycle (Count)
system.cpu.commit.numCommittedDist::underflows            0      0.00%      0.00% # Number of insts commited each cycle (Count)
system.cpu.commit.numCommittedDist::0         2089361     68.52%     68.52% # Number of insts commited each cycle (Count)
system.cpu.commit.numCommittedDist::1          250017      8.20%     76.72% # Number of insts commited each cycle (Count)
system.cpu.commit.numCommittedDist::2          180168      5.91%     82.62% # Number of insts commited each cycle (Count)
system.cpu.commit.numCommittedDist::3          156004      5.12%     87.74% # Number of insts commited each cycle (Count)
system.cpu.commit.numCommittedDist::4          373878     12.26%    100.00% # Number of insts commited each cycle (Count)
system.cpu.commit.numCommittedDist::overflows            0      0.00%    100.00% # Number of insts commited each cycle (Count)
system.cpu.commit.numCommittedDist::min_value            0                       # Number of insts commited each cycle (Count)
system.cpu.commit.numCommittedDist::max_value            4                       # Number of insts commited each cycle (Count)
system.cpu.commit.numCommittedDist::total      3049428                       # Number of insts commited each cycle (Count)
system.cpu.commit.amos                              0                       # Number of atomic instructions committed (Count)
system.cpu.commit.membars                          60                       # Number of memory barriers committed (Count)
system.cpu.commit.functionCalls                   934                       # Number of function calls committed. (Count)
system.cpu.commit.committedInstType_0::No_OpClass         1391      0.05%      0.05% # Class of committed instruction (Count)
system.cpu.commit.committedInstType_0::IntAlu      1626518     63.19%     63.25% # Class of committed instruction (Count)
system.cpu.commit.committedInstType_0::IntMult          724      0.03%     63.28% # Class of committed instruction (Count)
system.cpu.commit.committedInstType_0::IntDiv         1493      0.06%     63.33% # Class of committed instruction (Count)
system.cpu.commit.committedInstType_0::FloatAdd       100412      3.90%     67.23% # Class of committed instruction (Count)
system.cpu.commit.committedInstType_0::FloatCmp            0      0.00%     67.23% # Class of committed instruction (Count)
system.cpu.commit.committedInstType_0::FloatCvt            0      0.00%     67.23% # Class of committed instruction (Count)
system.cpu.commit.committedInstType_0::FloatMult            0      0.00%     67.23% # Class of committed instruction (Count)
system.cpu.commit.committedInstType_0::FloatMultAcc            0      0.00%     67.23% # Class of committed instruction (Count)
system.cpu.commit.committedInstType_0::FloatDiv            0      0.00%     67.23% # Class of committed instruction (Count)
system.cpu.commit.committedInstType_0::FloatMisc            0      0.00%     67.23% # Class of committed instruction (Count)
system.cpu.commit.committedInstType_0::FloatSqrt            0      0.00%     67.23% # Class of committed instruction (Count)
system.cpu.commit.committedInstType_0::SimdAdd          424      0.02%     67.25% # Class of committed instruction (Count)
system.cpu.commit.committedInstType_0::SimdAddAcc            0      0.00%     67.25% # Class of committed instruction (Count)
system.cpu.commit.committedInstType_0::SimdAlu          919      0.04%     67.29% # Class of committed instruction (Count)
system.cpu.commit.committedInstType_0::SimdCmp            2      0.00%     67.29% # Class of committed instruction (Count)
system.cpu.commit.committedInstType_0::SimdCvt          970      0.04%     67.32% # Class of committed instruction (Count)
system.cpu.commit.committedInstType_0::SimdMisc         1017      0.04%     67.36% # Class of committed instruction (Count)
system.cpu.commit.committedInstType_0::SimdMult            0      0.00%     67.36% # Class of committed instruction (Count)
system.cpu.commit.committedInstType_0::SimdMultAcc            0      0.00%     67.36% # Class of committed instruction (Count)
system.cpu.commit.committedInstType_0::SimdMatMultAcc            0      0.00%     67.36% # Class of committed instruction (Count)
system.cpu.commit.committedInstType_0::SimdShift          201      0.01%     67.37% # Class of committed instruction (Count)
system.cpu.commit.committedInstType_0::SimdShiftAcc            0      0.00%     67.37% # Class of committed instruction (Count)
system.cpu.commit.committedInstType_0::SimdDiv            0      0.00%     67.37% # Class of committed instruction (Count)
system.cpu.commit.committedInstType_0::SimdSqrt            0      0.00%     67.37% # Class of committed instruction (Count)
system.cpu.commit.committedInstType_0::SimdFloatAdd       100000      3.89%     71.26% # Class of committed instruction (Count)
system.cpu.commit.committedInstType_0::SimdFloatAlu            0      0.00%     71.26% # Class of committed instruction (Count)
system.cpu.commit.committedInstType_0::SimdFloatCmp            0      0.00%     71.26% # Class of committed instruction (Count)
system.cpu.commit.committedInstType_0::SimdFloatCvt            2      0.00%     71.26% # Class of committed instruction (Count)
system.cpu.commit.committedInstType_0::SimdFloatDiv            0      0.00%     71.26% # Class of committed instruction (Count)
system.cpu.commit.committedInstType_0::SimdFloatMisc            0      0.00%     71.26% # Class of committed instruction (Count)
system.cpu.commit.committedInstType_0::SimdFloatMult       100000      3.89%     75.14% # Class of committed instruction (Count)
system.cpu.commit.committedInstType_0::SimdFloatMultAcc            0      0.00%     75.14% # Class of committed instruction (Count)
system.cpu.commit.committedInstType_0::SimdFloatMatMultAcc            0      0.00%     75.14% # Class of committed instruction (Count)
system.cpu.commit.committedInstType_0::SimdFloatSqrt            0      0.00%     75.14% # Class of committed instruction (Count)
system.cpu.commit.committedInstType_0::SimdReduceAdd            0      0.00%     75.14% # Class of committed instruction (Count)
system.cpu.commit.committedInstType_0::SimdReduceAlu            0      0.00%     75.14% # Class of committed instruction (Count)
system.cpu.commit.committedInstType_0::SimdReduceCmp            0      0.00%     75.14% # Class of committed instruction (Count)
system.cpu.commit.committedInstType_0::SimdFloatReduceAdd            0      0.00%     75.14% # Class of committed instruction (Count)
system.cpu.commit.committedInstType_0::SimdFloatReduceCmp            0      0.00%     75.14% # Class of committed instruction (Count)
system.cpu.commit.committedInstType_0::SimdAes            0      0.00%     75.14% # Class of committed instruction (Count)
system.cpu.commit.committedInstType_0::SimdAesMix            0      0.00%     75.14% # Class of committed instruction (Count)
system.cpu.commit.committedInstType_0::SimdSha1Hash            0      0.00%     75.14% # Class of committed instruction (Count)
system.cpu.commit.committedInstType_0::SimdSha1Hash2            0      0.00%     75.14% # Class of committed instruction (Count)
system.cpu.commit.committedInstType_0::SimdSha256Hash            0      0.00%     75.14% # Class of committed instruction (Count)
system.cpu.commit.committedInstType_0::SimdSha256Hash2            0      0.00%     75.14% # Class of committed instruction (Count)
system.cpu.commit.committedInstType_0::SimdShaSigma2            0      0.00%     75.14% # Class of committed instruction (Count)
system.cpu.commit.committedInstType_0::SimdShaSigma3            0      0.00%     75.14% # Class of committed instruction (Count)
system.cpu.commit.committedInstType_0::SimdPredAlu            0      0.00%     75.14% # Class of committed instruction (Count)
system.cpu.commit.committedInstType_0::Matrix            0      0.00%     75.14% # Class of committed instruction (Count)
system.cpu.commit.committedInstType_0::MatrixMov            0      0.00%     75.14% # Class of committed instruction (Count)
system.cpu.commit.committedInstType_0::MatrixOP            0      0.00%     75.14% # Class of committed instruction (Count)
system.cpu.commit.committedInstType_0::MemRead        25158      0.98%     76.12% # Class of committed instruction (Count)
system.cpu.commit.committedInstType_0::MemWrite        12418      0.48%     76.60% # Class of committed instruction (Count)
system.cpu.commit.committedInstType_0::FloatMemRead       201070      7.81%     84.41% # Class of committed instruction (Count)
system.cpu.commit.committedInstType_0::FloatMemWrite       401158     15.59%    100.00% # Class of committed instruction (Count)
system.cpu.commit.committedInstType_0::IprAccess            0      0.00%    100.00% # Class of committed instruction (Count)
system.cpu.commit.committedInstType_0::InstPrefetch            0      0.00%    100.00% # Class of committed instruction (Count)
system.cpu.commit.committedInstType_0::VectorUnitStrideLoad            0      0.00%    100.00% # Class of committed instruction (Count)
system.cpu.commit.committedInstType_0::VectorUnitStrideStore            0      0.00%    100.00% # Class of committed instruction (Count)
system.cpu.commit.committedInstType_0::VectorUnitStrideMaskLoad            0      0.00%    100.00% # Class of committed instruction (Count)
system.cpu.commit.committedInstType_0::VectorUnitStrideMaskStore            0      0.00%    100.00% # Class of committed instruction (Count)
system.cpu.commit.committedInstType_0::VectorStridedLoad            0      0.00%    100.00% # Class of committed instruction (Count)
system.cpu.commit.committedInstType_0::VectorStridedStore            0      0.00%    100.00% # Class of committed instruction (Count)
system.cpu.commit.committedInstType_0::VectorIndexedLoad            0      0.00%    100.00% # Class of committed instruction (Count)
system.cpu.commit.committedInstType_0::VectorIndexedStore            0      0.00%    100.00% # Class of committed instruction (Count)
system.cpu.commit.committedInstType_0::VectorUnitStrideFaultOnlyFirstLoad            0      0.00%    100.00% # Class of committed instruction (Count)
system.cpu.commit.committedInstType_0::VectorWholeRegisterLoad            0      0.00%    100.00% # Class of committed instruction (Count)
system.cpu.commit.committedInstType_0::VectorWholeRegisterStore            0      0.00%    100.00% # Class of committed instruction (Count)
system.cpu.commit.committedInstType_0::VectorIntegerArith            0      0.00%    100.00% # Class of committed instruction (Count)
system.cpu.commit.committedInstType_0::VectorFloatArith            0      0.00%    100.00% # Class of committed instruction (Count)
system.cpu.commit.committedInstType_0::VectorFloatConvert            0      0.00%    100.00% # Class of committed instruction (Count)
system.cpu.commit.committedInstType_0::VectorIntegerReduce            0      0.00%    100.00% # Class of committed instruction (Count)
system.cpu.commit.committedInstType_0::VectorFloatReduce            0      0.00%    100.00% # Class of committed instruction (Count)
system.cpu.commit.committedInstType_0::VectorMisc            0      0.00%    100.00% # Class of committed instruction (Count)
system.cpu.commit.committedInstType_0::VectorIntegerExtension            0      0.00%    100.00% # Class of committed instruction (Count)
system.cpu.commit.committedInstType_0::VectorConfig            0      0.00%    100.00% # Class of committed instruction (Count)
system.cpu.commit.committedInstType_0::total      2573877                       # Class of committed instruction (Count)
system.cpu.commit.commitEligibleSamples        373878                       # number cycles where commit BW limit reached (Cycle)
system.cpu.commitStats0.numInsts              1390852                       # Number of instructions committed (thread level) (Count)
system.cpu.commitStats0.numOps                2573877                       # Number of ops (including micro ops) committed (thread level) (Count)
system.cpu.commitStats0.numInstsNotNOP        1390852                       # Number of instructions committed excluding NOPs or prefetches (Count)
system.cpu.commitStats0.numOpsNotNOP          2573877                       # Number of Ops (including micro ops) Simulated (Count)
system.cpu.commitStats0.cpi                  2.249976                       # CPI: cycles per instruction (thread level) ((Cycle/Count))
system.cpu.commitStats0.ipc                  0.444449                       # IPC: instructions per cycle (thread level) ((Count/Cycle))
system.cpu.commitStats0.numMemRefs             639804                       # Number of memory references committed (Count)
system.cpu.commitStats0.numFpInsts             906538                       # Number of float instructions (Count)
system.cpu.commitStats0.numIntInsts           2267883                       # Number of integer instructions (Count)
system.cpu.commitStats0.numLoadInsts           226228                       # Number of load instructions (Count)
system.cpu.commitStats0.numStoreInsts          413576                       # Number of store instructions (Count)
system.cpu.commitStats0.numVecInsts                 0                       # Number of vector instructions (Count)
system.cpu.commitStats0.committedInstType::No_OpClass         1391      0.05%      0.05% # Class of committed instruction. (Count)
system.cpu.commitStats0.committedInstType::IntAlu      1626518     63.19%     63.25% # Class of committed instruction. (Count)
system.cpu.commitStats0.committedInstType::IntMult          724      0.03%     63.28% # Class of committed instruction. (Count)
system.cpu.commitStats0.committedInstType::IntDiv         1493      0.06%     63.33% # Class of committed instruction. (Count)
system.cpu.commitStats0.committedInstType::FloatAdd       100412      3.90%     67.23% # Class of committed instruction. (Count)
system.cpu.commitStats0.committedInstType::FloatCmp            0      0.00%     67.23% # Class of committed instruction. (Count)
system.cpu.commitStats0.committedInstType::FloatCvt            0      0.00%     67.23% # Class of committed instruction. (Count)
system.cpu.commitStats0.committedInstType::FloatMult            0      0.00%     67.23% # Class of committed instruction. (Count)
system.cpu.commitStats0.committedInstType::FloatMultAcc            0      0.00%     67.23% # Class of committed instruction. (Count)
system.cpu.commitStats0.committedInstType::FloatDiv            0      0.00%     67.23% # Class of committed instruction. (Count)
system.cpu.commitStats0.committedInstType::FloatMisc            0      0.00%     67.23% # Class of committed instruction. (Count)
system.cpu.commitStats0.committedInstType::FloatSqrt            0      0.00%     67.23% # Class of committed instruction. (Count)
system.cpu.commitStats0.committedInstType::SimdAdd          424      0.02%     67.25% # Class of committed instruction. (Count)
system.cpu.commitStats0.committedInstType::SimdAddAcc            0      0.00%     67.25% # Class of committed instruction. (Count)
system.cpu.commitStats0.committedInstType::SimdAlu          919      0.04%     67.29% # Class of committed instruction. (Count)
system.cpu.commitStats0.committedInstType::SimdCmp            2      0.00%     67.29% # Class of committed instruction. (Count)
system.cpu.commitStats0.committedInstType::SimdCvt          970      0.04%     67.32% # Class of committed instruction. (Count)
system.cpu.commitStats0.committedInstType::SimdMisc         1017      0.04%     67.36% # Class of committed instruction. (Count)
system.cpu.commitStats0.committedInstType::SimdMult            0      0.00%     67.36% # Class of committed instruction. (Count)
system.cpu.commitStats0.committedInstType::SimdMultAcc            0      0.00%     67.36% # Class of committed instruction. (Count)
system.cpu.commitStats0.committedInstType::SimdMatMultAcc            0      0.00%     67.36% # Class of committed instruction. (Count)
system.cpu.commitStats0.committedInstType::SimdShift          201      0.01%     67.37% # Class of committed instruction. (Count)
system.cpu.commitStats0.committedInstType::SimdShiftAcc            0      0.00%     67.37% # Class of committed instruction. (Count)
system.cpu.commitStats0.committedInstType::SimdDiv            0      0.00%     67.37% # Class of committed instruction. (Count)
system.cpu.commitStats0.committedInstType::SimdSqrt            0      0.00%     67.37% # Class of committed instruction. (Count)
system.cpu.commitStats0.committedInstType::SimdFloatAdd       100000      3.89%     71.26% # Class of committed instruction. (Count)
system.cpu.commitStats0.committedInstType::SimdFloatAlu            0      0.00%     71.26% # Class of committed instruction. (Count)
system.cpu.commitStats0.committedInstType::SimdFloatCmp            0      0.00%     71.26% # Class of committed instruction. (Count)
system.cpu.commitStats0.committedInstType::SimdFloatCvt            2      0.00%     71.26% # Class of committed instruction. (Count)
system.cpu.commitStats0.committedInstType::SimdFloatDiv            0      0.00%     71.26% # Class of committed instruction. (Count)
system.cpu.commitStats0.committedInstType::SimdFloatMisc            0      0.00%     71.26% # Class of committed instruction. (Count)
system.cpu.commitStats0.committedInstType::SimdFloatMult       100000      3.89%     75.14% # Class of committed instruction. (Count)
system.cpu.commitStats0.committedInstType::SimdFloatMultAcc            0      0.00%     75.14% # Class of committed instruction. (Count)
system.cpu.commitStats0.committedInstType::SimdFloatMatMultAcc            0      0.00%     75.14% # Class of committed instruction. (Count)
system.cpu.commitStats0.committedInstType::SimdFloatSqrt            0      0.00%     75.14% # Class of committed instruction. (Count)
system.cpu.commitStats0.committedInstType::SimdReduceAdd            0      0.00%     75.14% # Class of committed instruction. (Count)
system.cpu.commitStats0.committedInstType::SimdReduceAlu            0      0.00%     75.14% # Class of committed instruction. (Count)
system.cpu.commitStats0.committedInstType::SimdReduceCmp            0      0.00%     75.14% # Class of committed instruction. (Count)
system.cpu.commitStats0.committedInstType::SimdFloatReduceAdd            0      0.00%     75.14% # Class of committed instruction. (Count)
system.cpu.commitStats0.committedInstType::SimdFloatReduceCmp            0      0.00%     75.14% # Class of committed instruction. (Count)
system.cpu.commitStats0.committedInstType::SimdAes            0      0.00%     75.14% # Class of committed instruction. (Count)
system.cpu.commitStats0.committedInstType::SimdAesMix            0      0.00%     75.14% # Class of committed instruction. (Count)
system.cpu.commitStats0.committedInstType::SimdSha1Hash            0      0.00%     75.14% # Class of committed instruction. (Count)
system.cpu.commitStats0.committedInstType::SimdSha1Hash2            0      0.00%     75.14% # Class of committed instruction. (Count)
system.cpu.commitStats0.committedInstType::SimdSha256Hash            0      0.00%     75.14% # Class of committed instruction. (Count)
system.cpu.commitStats0.committedInstType::SimdSha256Hash2            0      0.00%     75.14% # Class of committed instruction. (Count)
system.cpu.commitStats0.committedInstType::SimdShaSigma2            0      0.00%     75.14% # Class of committed instruction. (Count)
system.cpu.commitStats0.committedInstType::SimdShaSigma3            0      0.00%     75.14% # Class of committed instruction. (Count)
system.cpu.commitStats0.committedInstType::SimdPredAlu            0      0.00%     75.14% # Class of committed instruction. (Count)
system.cpu.commitStats0.committedInstType::Matrix            0      0.00%     75.14% # Class of committed instruction. (Count)
system.cpu.commitStats0.committedInstType::MatrixMov            0      0.00%     75.14% # Class of committed instruction. (Count)
system.cpu.commitStats0.committedInstType::MatrixOP            0      0.00%     75.14% # Class of committed instruction. (Count)
system.cpu.commitStats0.committedInstType::MemRead        25158      0.98%     76.12% # Class of committed instruction. (Count)
system.cpu.commitStats0.committedInstType::MemWrite        12418      0.48%     76.60% # Class of committed instruction. (Count)
system.cpu.commitStats0.committedInstType::FloatMemRead       201070      7.81%     84.41% # Class of committed instruction. (Count)
system.cpu.commitStats0.committedInstType::FloatMemWrite       401158     15.59%    100.00% # Class of committed instruction. (Count)
system.cpu.commitStats0.committedInstType::IprAccess            0      0.00%    100.00% # Class of committed instruction. (Count)
system.cpu.commitStats0.committedInstType::InstPrefetch            0      0.00%    100.00% # Class of committed instruction. (Count)
system.cpu.commitStats0.committedInstType::VectorUnitStrideLoad            0      0.00%    100.00% # Class of committed instruction. (Count)
system.cpu.commitStats0.committedInstType::VectorUnitStrideStore            0      0.00%    100.00% # Class of committed instruction. (Count)
system.cpu.commitStats0.committedInstType::VectorUnitStrideMaskLoad            0      0.00%    100.00% # Class of committed instruction. (Count)
system.cpu.commitStats0.committedInstType::VectorUnitStrideMaskStore            0      0.00%    100.00% # Class of committed instruction. (Count)
system.cpu.commitStats0.committedInstType::VectorStridedLoad            0      0.00%    100.00% # Class of committed instruction. (Count)
system.cpu.commitStats0.committedInstType::VectorStridedStore            0      0.00%    100.00% # Class of committed instruction. (Count)
system.cpu.commitStats0.committedInstType::VectorIndexedLoad            0      0.00%    100.00% # Class of committed instruction. (Count)
system.cpu.commitStats0.committedInstType::VectorIndexedStore            0      0.00%    100.00% # Class of committed instruction. (Count)
system.cpu.commitStats0.committedInstType::VectorUnitStrideFaultOnlyFirstLoad            0      0.00%    100.00% # Class of committed instruction. (Count)
system.cpu.commitStats0.committedInstType::VectorWholeRegisterLoad            0      0.00%    100.00% # Class of committed instruction. (Count)
system.cpu.commitStats0.committedInstType::VectorWholeRegisterStore            0      0.00%    100.00% # Class of committed instruction. (Count)
system.cpu.commitStats0.committedInstType::VectorIntegerArith            0      0.00%    100.00% # Class of committed instruction. (Count)
system.cpu.commitStats0.committedInstType::VectorFloatArith            0      0.00%    100.00% # Class of committed instruction. (Count)
system.cpu.commitStats0.committedInstType::VectorFloatConvert            0      0.00%    100.00% # Class of committed instruction. (Count)
system.cpu.commitStats0.committedInstType::VectorIntegerReduce            0      0.00%    100.00% # Class of committed instruction. (Count)
system.cpu.commitStats0.committedInstType::VectorFloatReduce            0      0.00%    100.00% # Class of committed instruction. (Count)
system.cpu.commitStats0.committedInstType::VectorMisc            0      0.00%    100.00% # Class of committed instruction. (Count)
system.cpu.commitStats0.committedInstType::VectorIntegerExtension            0      0.00%    100.00% # Class of committed instruction. (Count)
system.cpu.commitStats0.committedInstType::VectorConfig            0      0.00%    100.00% # Class of committed instruction. (Count)
system.cpu.commitStats0.committedInstType::total      2573877                       # Class of committed instruction. (Count)
system.cpu.commitStats0.committedControl::IsControl       233583                       # Class of control type instructions committed (Count)
system.cpu.commitStats0.committedControl::IsDirectControl       232276                       # Class of control type instructions committed (Count)
system.cpu.commitStats0.committedControl::IsIndirectControl         1271                       # Class of control type instructions committed (Count)
system.cpu.commitStats0.committedControl::IsCondControl       230689                       # Class of control type instructions committed (Count)
system.cpu.commitStats0.committedControl::IsUncondControl         2858                       # Class of control type instructions committed (Count)
system.cpu.commitStats0.committedControl::IsCall          934                       # Class of control type instructions committed (Count)
system.cpu.commitStats0.committedControl::IsReturn          929                       # Class of control type instructions committed (Count)
system.cpu.dcache.demandHits::cpu.data         479223                       # number of demand (read+write) hits (Count)
system.cpu.dcache.demandHits::total            479223                       # number of demand (read+write) hits (Count)
system.cpu.dcache.overallHits::cpu.data        479223                       # number of overall hits (Count)
system.cpu.dcache.overallHits::total           479223                       # number of overall hits (Count)
system.cpu.dcache.demandMisses::cpu.data       166816                       # number of demand (read+write) misses (Count)
system.cpu.dcache.demandMisses::total          166816                       # number of demand (read+write) misses (Count)
system.cpu.dcache.overallMisses::cpu.data       166816                       # number of overall misses (Count)
system.cpu.dcache.overallMisses::total         166816                       # number of overall misses (Count)
system.cpu.dcache.demandMissLatency::cpu.data   8003779799                       # number of demand (read+write) miss ticks (Tick)
system.cpu.dcache.demandMissLatency::total   8003779799                       # number of demand (read+write) miss ticks (Tick)
system.cpu.dcache.overallMissLatency::cpu.data   8003779799                       # number of overall miss ticks (Tick)
system.cpu.dcache.overallMissLatency::total   8003779799                       # number of overall miss ticks (Tick)
system.cpu.dcache.demandAccesses::cpu.data       646039                       # number of demand (read+write) accesses (Count)
system.cpu.dcache.demandAccesses::total        646039                       # number of demand (read+write) accesses (Count)
system.cpu.dcache.overallAccesses::cpu.data       646039                       # number of overall (read+write) accesses (Count)
system.cpu.dcache.overallAccesses::total       646039                       # number of overall (read+write) accesses (Count)
system.cpu.dcache.demandMissRate::cpu.data     0.258214                       # miss rate for demand accesses (Ratio)
system.cpu.dcache.demandMissRate::total      0.258214                       # miss rate for demand accesses (Ratio)
system.cpu.dcache.overallMissRate::cpu.data     0.258214                       # miss rate for overall accesses (Ratio)
system.cpu.dcache.overallMissRate::total     0.258214                       # miss rate for overall accesses (Ratio)
system.cpu.dcache.demandAvgMissLatency::cpu.data 47979.688993                       # average overall miss latency in ticks ((Tick/Count))
system.cpu.dcache.demandAvgMissLatency::total 47979.688993                       # average overall miss latency in ticks ((Tick/Count))
system.cpu.dcache.overallAvgMissLatency::cpu.data 47979.688993                       # average overall miss latency ((Tick/Count))
system.cpu.dcache.overallAvgMissLatency::total 47979.688993                       # average overall miss latency ((Tick/Count))
system.cpu.dcache.blockedCycles::no_mshrs       241605                       # number of cycles access was blocked (Cycle)
system.cpu.dcache.blockedCycles::no_targets            0                       # number of cycles access was blocked (Cycle)
system.cpu.dcache.blockedCauses::no_mshrs        13320                       # number of times access was blocked (Count)
system.cpu.dcache.blockedCauses::no_targets            0                       # number of times access was blocked (Count)
[...]
system.mem_ctrl.dram.numWrites::writebacks        46250                       # Number of write requests responded to by this memory (Count)
system.mem_ctrl.dram.numWrites::total           46250                       # Number of write requests responded to by this memory (Count)
system.mem_ctrl.dram.bwRead::cpu.inst        30431558                       # Total read bandwidth from this memory ((Byte/Second))
system.mem_ctrl.dram.bwRead::cpu.data       832286748                       # Total read bandwidth from this memory ((Byte/Second))
system.mem_ctrl.dram.bwRead::cpu.dcache.prefetcher    514861875                       # Total read bandwidth from this memory ((Byte/Second))
system.mem_ctrl.dram.bwRead::l2cache.prefetcher    200177479                       # Total read bandwidth from this memory ((Byte/Second))
system.mem_ctrl.dram.bwRead::total         1577757660                       # Total read bandwidth from this memory ((Byte/Second))
system.mem_ctrl.dram.bwInstRead::cpu.inst     30431558                       # Instruction read bandwidth from this memory ((Byte/Second))
system.mem_ctrl.dram.bwInstRead::total       30431558                       # Instruction read bandwidth from this memory ((Byte/Second))
system.mem_ctrl.dram.bwWrite::writebacks    945873356                       # Write bandwidth from this memory ((Byte/Second))
system.mem_ctrl.dram.bwWrite::total         945873356                       # Write bandwidth from this memory ((Byte/Second))
system.mem_ctrl.dram.bwTotal::writebacks    945873356                       # Total bandwidth to/from this memory ((Byte/Second))
system.mem_ctrl.dram.bwTotal::cpu.inst       30431558                       # Total bandwidth to/from this memory ((Byte/Second))
system.mem_ctrl.dram.bwTotal::cpu.data      832286748                       # Total bandwidth to/from this memory ((Byte/Second))
system.mem_ctrl.dram.bwTotal::cpu.dcache.prefetcher    514861875                       # Total bandwidth to/from this memory ((Byte/Second))
system.mem_ctrl.dram.bwTotal::l2cache.prefetcher    200177479                       # Total bandwidth to/from this memory ((Byte/Second))
system.mem_ctrl.dram.bwTotal::total        2523631016                       # Total bandwidth to/from this memory ((Byte/Second))
system.mem_ctrl.dram.readBursts                 77147                       # Number of DRAM read bursts (Count)
system.mem_ctrl.dram.writeBursts                46220                       # Number of DRAM write bursts (Count)
system.mem_ctrl.dram.perBankRdBursts::0          5032                       # Per bank write bursts (Count)
system.mem_ctrl.dram.perBankRdBursts::1          4968                       # Per bank write bursts (Count)
system.mem_ctrl.dram.perBankRdBursts::2          4875                       # Per bank write bursts (Count)
system.mem_ctrl.dram.perBankRdBursts::3          4958                       # Per bank write bursts (Count)
system.mem_ctrl.dram.perBankRdBursts::4          4757                       # Per bank write bursts (Count)
system.mem_ctrl.dram.perBankRdBursts::5          4919                       # Per bank write bursts (Count)
system.mem_ctrl.dram.perBankRdBursts::6          4832                       # Per bank write bursts (Count)
system.mem_ctrl.dram.perBankRdBursts::7          4742                       # Per bank write bursts (Count)
system.mem_ctrl.dram.perBankRdBursts::8          4736                       # Per bank write bursts (Count)
system.mem_ctrl.dram.perBankRdBursts::9          4662                       # Per bank write bursts (Count)
system.mem_ctrl.dram.perBankRdBursts::10         4674                       # Per bank write bursts (Count)
system.mem_ctrl.dram.perBankRdBursts::11         4762                       # Per bank write bursts (Count)
system.mem_ctrl.dram.perBankRdBursts::12         4739                       # Per bank write bursts (Count)
system.mem_ctrl.dram.perBankRdBursts::13         4750                       # Per bank write bursts (Count)
system.mem_ctrl.dram.perBankRdBursts::14         4769                       # Per bank write bursts (Count)
system.mem_ctrl.dram.perBankRdBursts::15         4972                       # Per bank write bursts (Count)
system.mem_ctrl.dram.perBankWrBursts::0          3065                       # Per bank write bursts (Count)
system.mem_ctrl.dram.perBankWrBursts::1          2973                       # Per bank write bursts (Count)
system.mem_ctrl.dram.perBankWrBursts::2          2867                       # Per bank write bursts (Count)
system.mem_ctrl.dram.perBankWrBursts::3          2862                       # Per bank write bursts (Count)
system.mem_ctrl.dram.perBankWrBursts::4          2867                       # Per bank write bursts (Count)
system.mem_ctrl.dram.perBankWrBursts::5          3004                       # Per bank write bursts (Count)
system.mem_ctrl.dram.perBankWrBursts::6          2857                       # Per bank write bursts (Count)
system.mem_ctrl.dram.perBankWrBursts::7          2809                       # Per bank write bursts (Count)
system.mem_ctrl.dram.perBankWrBursts::8          2808                       # Per bank write bursts (Count)
system.mem_ctrl.dram.perBankWrBursts::9          2833                       # Per bank write bursts (Count)
system.mem_ctrl.dram.perBankWrBursts::10         2812                       # Per bank write bursts (Count)
system.mem_ctrl.dram.perBankWrBursts::11         2951                       # Per bank write bursts (Count)
system.mem_ctrl.dram.perBankWrBursts::12         2862                       # Per bank write bursts (Count)
system.mem_ctrl.dram.perBankWrBursts::13         2809                       # Per bank write bursts (Count)
system.mem_ctrl.dram.perBankWrBursts::14         2860                       # Per bank write bursts (Count)
system.mem_ctrl.dram.perBankWrBursts::15         2981                       # Per bank write bursts (Count)
system.mem_ctrl.dram.totQLat               1412146654                       # Total ticks spent queuing (Tick)
system.mem_ctrl.dram.totBusLat              385735000                       # Total ticks spent in databus transfers (Tick)
system.mem_ctrl.dram.totMemAccLat          2858652904                       # Total ticks spent from burst creation until serviced by the DRAM (Tick)
system.mem_ctrl.dram.avgQLat                 18304.62                       # Average queueing delay per DRAM burst ((Tick/Count))
system.mem_ctrl.dram.avgBusLat                5000.00                       # Average bus latency per DRAM burst ((Tick/Count))
system.mem_ctrl.dram.avgMemAccLat            37054.62                       # Average memory access latency per DRAM burst ((Tick/Count))
system.mem_ctrl.dram.readRowHits                69665                       # Number of row buffer hits during reads (Count)
system.mem_ctrl.dram.writeRowHits               38003                       # Number of row buffer hits during writes (Count)
system.mem_ctrl.dram.readRowHitRate             90.30                       # Row buffer hit rate for reads (Ratio)
system.mem_ctrl.dram.writeRowHitRate            82.22                       # Row buffer hit rate for writes (Ratio)
system.mem_ctrl.dram.bytesPerActivate::samples        15687                       # Bytes accessed per row activation (Byte)
system.mem_ctrl.dram.bytesPerActivate::mean   503.122331                       # Bytes accessed per row activation (Byte)
system.mem_ctrl.dram.bytesPerActivate::gmean   343.516049                       # Bytes accessed per row activation (Byte)
system.mem_ctrl.dram.bytesPerActivate::stdev   361.936296                       # Bytes accessed per row activation (Byte)
system.mem_ctrl.dram.bytesPerActivate::0-127         2477     15.79%     15.79% # Bytes accessed per row activation (Byte)
system.mem_ctrl.dram.bytesPerActivate::128-255         2688     17.14%     32.93% # Bytes accessed per row activation (Byte)
system.mem_ctrl.dram.bytesPerActivate::256-383         1696     10.81%     43.74% # Bytes accessed per row activation (Byte)
system.mem_ctrl.dram.bytesPerActivate::384-511         1601     10.21%     53.94% # Bytes accessed per row activation (Byte)
system.mem_ctrl.dram.bytesPerActivate::512-639         1381      8.80%     62.75% # Bytes accessed per row activation (Byte)
system.mem_ctrl.dram.bytesPerActivate::640-767          937      5.97%     68.72% # Bytes accessed per row activation (Byte)
system.mem_ctrl.dram.bytesPerActivate::768-895          741      4.72%     73.44% # Bytes accessed per row activation (Byte)
system.mem_ctrl.dram.bytesPerActivate::896-1023          803      5.12%     78.56% # Bytes accessed per row activation (Byte)
system.mem_ctrl.dram.bytesPerActivate::1024-1151         3363     21.44%    100.00% # Bytes accessed per row activation (Byte)
system.mem_ctrl.dram.bytesPerActivate::total        15687                       # Bytes accessed per row activation (Byte)
system.mem_ctrl.dram.dramBytesRead            4937408                       # Total bytes read (Byte)
system.mem_ctrl.dram.dramBytesWritten         2958080                       # Total bytes written (Byte)
system.mem_ctrl.dram.avgRdBW              1577.757660                       # Average DRAM read bandwidth in MiBytes/s ((Byte/Second))
system.mem_ctrl.dram.avgWrBW               945.259816                       # Average DRAM write bandwidth in MiBytes/s ((Byte/Second))
system.mem_ctrl.dram.peakBW                  12800.00                       # Theoretical peak bandwidth in MiByte/s ((Byte/Second))
system.mem_ctrl.dram.busUtil                    19.71                       # Data bus utilization in percentage (Ratio)
system.mem_ctrl.dram.busUtilRead                12.33                       # Data bus utilization in percentage for reads (Ratio)
system.mem_ctrl.dram.busUtilWrite                7.38                       # Data bus utilization in percentage for writes (Ratio)
system.mem_ctrl.dram.pageHitRate                87.27                       # Row buffer hit rate, read and write combined (Ratio)
system.mem_ctrl.dram.power_state.pwrStateResidencyTicks::UNDEFINED   3129383000                       # Cumulative time (in ticks) in various power states (Tick)
system.mem_ctrl.dram.rank0.actEnergy         56927220                       # Energy for activate commands per rank (pJ) (Joule)
system.mem_ctrl.dram.rank0.preEnergy         30234765                       # Energy for precharge commands per rank (pJ) (Joule)
system.mem_ctrl.dram.rank0.readEnergy       279052620                       # Energy for read commands per rank (pJ) (Joule)
system.mem_ctrl.dram.rank0.writeEnergy      121646880                       # Energy for write commands per rank (pJ) (Joule)
system.mem_ctrl.dram.rank0.refreshEnergy 246470640.000000                       # Energy for refresh commands per rank (pJ) (Joule)
system.mem_ctrl.dram.rank0.actBackEnergy    981232200                       # Energy for active background per rank (pJ) (Joule)
system.mem_ctrl.dram.rank0.preBackEnergy    375382560                       # Energy for precharge background per rank (pJ) (Joule)
system.mem_ctrl.dram.rank0.actPowerDownEnergy            0                       # Energy for active power-down per rank (pJ) (Joule)
system.mem_ctrl.dram.rank0.prePowerDownEnergy            0                       # Energy for precharge power-down per rank (pJ) (Joule)
system.mem_ctrl.dram.rank0.selfRefreshEnergy            0                       # Energy for self refresh per rank (pJ) (Joule)
system.mem_ctrl.dram.rank0.totalEnergy     2090946885                       # Total energy per rank (pJ) (Joule)
system.mem_ctrl.dram.rank0.averagePower    668.165860                       # Core power per rank (mW) (Watt)
system.mem_ctrl.dram.rank0.totalIdleTime            0                       # Total Idle time Per DRAM Rank (Tick)
system.mem_ctrl.dram.rank0.pwrStateTime::IDLE    948693261                       # Time in different power states (Tick)
system.mem_ctrl.dram.rank0.pwrStateTime::REF    104260000                       # Time in different power states (Tick)
system.mem_ctrl.dram.rank0.pwrStateTime::SREF            0                       # Time in different power states (Tick)
system.mem_ctrl.dram.rank0.pwrStateTime::PRE_PDN            0                       # Time in different power states (Tick)
system.mem_ctrl.dram.rank0.pwrStateTime::ACT   2076429739                       # Time in different power states (Tick)
system.mem_ctrl.dram.rank0.pwrStateTime::ACT_PDN            0                       # Time in different power states (Tick)
system.mem_ctrl.dram.rank1.actEnergy         55163640                       # Energy for activate commands per rank (pJ) (Joule)
system.mem_ctrl.dram.rank1.preEnergy         29297400                       # Energy for precharge commands per rank (pJ) (Joule)
system.mem_ctrl.dram.rank1.readEnergy       271776960                       # Energy for read commands per rank (pJ) (Joule)
system.mem_ctrl.dram.rank1.writeEnergy      119621520                       # Energy for write commands per rank (pJ) (Joule)
system.mem_ctrl.dram.rank1.refreshEnergy 246470640.000000                       # Energy for refresh commands per rank (pJ) (Joule)
system.mem_ctrl.dram.rank1.actBackEnergy    964461090                       # Energy for active background per rank (pJ) (Joule)
system.mem_ctrl.dram.rank1.preBackEnergy    389505600                       # Energy for precharge background per rank (pJ) (Joule)
system.mem_ctrl.dram.rank1.actPowerDownEnergy            0                       # Energy for active power-down per rank (pJ) (Joule)
system.mem_ctrl.dram.rank1.prePowerDownEnergy            0                       # Energy for precharge power-down per rank (pJ) (Joule)
system.mem_ctrl.dram.rank1.selfRefreshEnergy            0                       # Energy for self refresh per rank (pJ) (Joule)
system.mem_ctrl.dram.rank1.totalEnergy     2076296850                       # Total energy per rank (pJ) (Joule)
system.mem_ctrl.dram.rank1.averagePower    663.484415                       # Core power per rank (mW) (Watt)
system.mem_ctrl.dram.rank1.totalIdleTime            0                       # Total Idle time Per DRAM Rank (Tick)
system.mem_ctrl.dram.rank1.pwrStateTime::IDLE    983867516                       # Time in different power states (Tick)
system.mem_ctrl.dram.rank1.pwrStateTime::REF    104260000                       # Time in different power states (Tick)
system.mem_ctrl.dram.rank1.pwrStateTime::SREF            0                       # Time in different power states (Tick)
system.mem_ctrl.dram.rank1.pwrStateTime::PRE_PDN            0                       # Time in different power states (Tick)
system.mem_ctrl.dram.rank1.pwrStateTime::ACT   2041255484                       # Time in different power states (Tick)
system.mem_ctrl.dram.rank1.pwrStateTime::ACT_PDN            0                       # Time in different power states (Tick)
system.mem_ctrl.power_state.pwrStateResidencyTicks::UNDEFINED   3129383000                       # Cumulative time (in ticks) in various power states (Tick)
system.membus.transDist::ReadResp               53068                       # Transaction distribution (Count)
system.membus.transDist::WritebackDirty         46250                       # Transaction distribution (Count)
system.membus.transDist::CleanEvict             21799                       # Transaction distribution (Count)
system.membus.transDist::ReadExReq              24079                       # Transaction distribution (Count)
system.membus.transDist::ReadExResp             24079                       # Transaction distribution (Count)
system.membus.transDist::ReadSharedReq          53068                       # Transaction distribution (Count)
system.membus.pktCount_system.l2cache.mem_side_port::system.mem_ctrl.port       222343                       # Packet count per connected requestor and responder (Count)
system.membus.pktCount_system.l2cache.mem_side_port::total       222343                       # Packet count per connected requestor and responder (Count)
system.membus.pktCount::total                  222343                       # Packet count per connected requestor and responder (Count)
system.membus.pktSize_system.l2cache.mem_side_port::system.mem_ctrl.port      7897408                       # Cumulative packet size per connected requestor and responder (Byte)
system.membus.pktSize_system.l2cache.mem_side_port::total      7897408                       # Cumulative packet size per connected requestor and responder (Byte)
system.membus.pktSize::total                  7897408                       # Cumulative packet size per connected requestor and responder (Byte)
system.membus.snoops                                0                       # Total snoops (Count)
system.membus.snoopTraffic                          0                       # Total snoop traffic (Byte)
system.membus.snoopFanout::samples              77147                       # Request fanout histogram (Count)
system.membus.snoopFanout::mean                     0                       # Request fanout histogram (Count)
system.membus.snoopFanout::stdev                    0                       # Request fanout histogram (Count)
system.membus.snoopFanout::underflows               0      0.00%      0.00% # Request fanout histogram (Count)
system.membus.snoopFanout::0                    77147    100.00%    100.00% # Request fanout histogram (Count)
system.membus.snoopFanout::1                        0      0.00%    100.00% # Request fanout histogram (Count)
system.membus.snoopFanout::overflows                0      0.00%    100.00% # Request fanout histogram (Count)
system.membus.snoopFanout::min_value                0                       # Request fanout histogram (Count)
system.membus.snoopFanout::max_value                0                       # Request fanout histogram (Count)
system.membus.snoopFanout::total                77147                       # Request fanout histogram (Count)
system.membus.power_state.pwrStateResidencyTicks::UNDEFINED   3129383000                       # Cumulative time (in ticks) in various power states (Tick)
system.membus.reqLayer2.occupancy           338876290                       # Layer occupancy (ticks) (Tick)
system.membus.reqLayer2.utilization               0.1                       # Layer utilization (Ratio)
system.membus.respLayer0.occupancy          403179339                       # Layer occupancy (ticks) (Tick)
system.membus.respLayer0.utilization              0.1                       # Layer utilization (Ratio)
system.membus.snoop_filter.totRequests         145196                       # Total number of requests made to the snoop filter. (Count)
system.membus.snoop_filter.hitSingleRequests        68051                       # Number of requests hitting in the snoop filter with a single holder of the requested data. (Count)
system.membus.snoop_filter.hitMultiRequests            0                       # Number of requests hitting in the snoop filter with multiple (>1) holders of the requested data. (Count)
system.membus.snoop_filter.totSnoops                0                       # Total number of snoops made to the snoop filter. (Count)
system.membus.snoop_filter.hitSingleSnoops            0                       # Number of snoops hitting in the snoop filter with a single holder of the requested data. (Count)
system.membus.snoop_filter.hitMultiSnoops            0                       # Number of snoops hitting in the snoop filter with multiple (>1) holders of the requested data. (Count)
system.workload.inst.arm                            0                       # number of arm instructions executed (Count)
system.workload.inst.quiesce                        0                       # number of quiesce instructions executed (Count)

---------- End Simulation Statistics   ----------
