
---------- Begin Simulation Statistics ----------
simSeconds                                   0.015979                       # Number of seconds simulated (Second)
simTicks                                  15978896000                       # Number of ticks simulated (Tick)
finalTick                                 15978896000                       # Number of ticks from beginning of simulation (restored from checkpoints and never reset) (Tick)
simFreq                                  1000000000000                       # The number of ticks per simulated second ((Tick/Second))
hostSeconds                                     62.83                       # Real time elapsed on the host (Second)
hostTickRate                                254314894                       # The number of ticks simulated per host second (ticks/s) ((Tick/Second))
hostMemory                                     715396                       # Number of bytes of host memory used (Byte)
simInsts                                      5000000                       # Number of instructions simulated (Count)
simOps                                       10569105                       # Number of ops (including micro ops) simulated (Count)
hostInstRate                                    79578                       # Simulator instruction rate (inst/s) ((Count/Second))
hostOpRate                                     168214                       # Simulator op (including micro ops) rate (op/s) ((Count/Second))
system.clk_domain.clock                          1000                       # Clock period in ticks (Tick)
system.clk_domain.voltage_domain.voltage            1                       # Voltage in Volts (Volt)
system.cpu.numCycles                         15978897                       # Number of cpu cycles simulated (Cycle)
system.cpu.cpi                               3.195779                       # CPI: cycles per instruction (core level) ((Cycle/Count))
system.cpu.ipc                               0.312913                       # IPC: instructions per cycle (core level) ((Count/Cycle))
system.cpu.numWorkItemsStarted                      0                       # Number of work items this cpu started (Count)
system.cpu.numWorkItemsCompleted                    0                       # Number of work items this cpu completed (Count)
system.cpu.instsAdded                        14959120                       # Number of instructions added to the IQ (excludes non-spec) (Count)
system.cpu.nonSpecInstsAdded                   558204                       # Number of non-speculative instructions added to the IQ (Count)
system.cpu.instsIssued                       13204816                       # Number of instructions issued (Count)
system.cpu.squashedInstsIssued                  65544                       # Number of squashed instructions issued (Count)
system.cpu.squashedInstsExamined              4948156                       # Number of squashed instructions iterated over during squash; mainly for profiling (Count)
system.cpu.squashedOperandsExamined          10863812                       # Number of squashed operands that are examined and possibly removed from graph (Count)
system.cpu.squashedNonSpecRemoved              234180                       # Number of squashed non-spec instructions that were removed (Count)
system.cpu.numIssuedDist::samples            15964187                       # Number of insts issued each cycle (Count)
system.cpu.numIssuedDist::mean               0.827152                       # Number of insts issued each cycle (Count)
system.cpu.numIssuedDist::stdev              0.873355                       # Number of insts issued each cycle (Count)
system.cpu.numIssuedDist::underflows                0      0.00%      0.00% # Number of insts issued each cycle (Count)
system.cpu.numIssuedDist::0                   7706498     48.27%     48.27% # Number of insts issued each cycle (Count)
system.cpu.numIssuedDist::1                   3310562     20.74%     69.01% # Number of insts issued each cycle (Count)
system.cpu.numIssuedDist::2                   4947127     30.99%    100.00% # Number of insts issued each cycle (Count)
system.cpu.numIssuedDist::overflows                 0      0.00%    100.00% # Number of insts issued each cycle (Count)
system.cpu.numIssuedDist::min_value                 0                       # Number of insts issued each cycle (Count)
system.cpu.numIssuedDist::max_value                 2                       # Number of insts issued each cycle (Count)
system.cpu.numIssuedDist::total              15964187                       # Number of insts issued each cycle (Count)
system.cpu.statFuBusy::No_OpClass                   0                       # attempts to use FU when none available (Count)
system.cpu.statFuBusy::IntAlu                       0                       # attempts to use FU when none available (Count)
system.cpu.statFuBusy::IntMult                      0                       # attempts to use FU when none available (Count)
system.cpu.statFuBusy::IntDiv                       0                       # attempts to use FU when none available (Count)
system.cpu.statFuBusy::FloatAdd                     0                       # attempts to use FU when none available (Count)
system.cpu.statFuBusy::FloatCmp                     0                       # attempts to use FU when none available (Count)
system.cpu.statFuBusy::FloatCvt                     0                       # attempts to use FU when none available (Count)
system.cpu.statFuBusy::FloatMult                    0                       # attempts to use FU when none available (Count)
system.cpu.statFuBusy::FloatMultAcc                 0                       # attempts to use FU when none available (Count)
system.cpu.statFuBusy::FloatDiv                     0                       # attempts to use FU when none available (Count)
system.cpu.statFuBusy::FloatMisc                    0                       # attempts to use FU when none available (Count)
system.cpu.statFuBusy::FloatSqrt                    0                       # attempts to use FU when none available (Count)
system.cpu.statFuBusy::SimdAdd                      0                       # attempts to use FU when none available (Count)
system.cpu.statFuBusy::SimdAddAcc                   0                       # attempts to use FU when none available (Count)
system.cpu.statFuBusy::SimdAlu                      0                       # attempts to use FU when none available (Count)
system.cpu.statFuBusy::SimdCmp                      0                       # attempts to use FU when none available (Count)
system.cpu.statFuBusy::SimdCvt                      0                       # attempts to use FU when none available (Count)
system.cpu.statFuBusy::SimdMisc                     0                       # attempts to use FU when none available (Count)
system.cpu.statFuBusy::SimdMult                     0                       # attempts to use FU when none available (Count)
system.cpu.statFuBusy::SimdMultAcc                  0                       # attempts to use FU when none available (Count)
system.cpu.statFuBusy::SimdMatMultAcc               0                       # attempts to use FU when none available (Count)
system.cpu.statFuBusy::SimdShift                    0                       # attempts to use FU when none available (Count)
system.cpu.statFuBusy::SimdShiftAcc                 0                       # attempts to use FU when none available (Count)
system.cpu.statFuBusy::SimdDiv                      0                       # attempts to use FU when none available (Count)
system.cpu.statFuBusy::SimdSqrt                     0                       # attempts to use FU when none available (Count)
system.cpu.statFuBusy::SimdFloatAdd                 0                       # attempts to use FU when none available (Count)
system.cpu.statFuBusy::SimdFloatAlu                 0                       # attempts to use FU when none available (Count)
system.cpu.statFuBusy::SimdFloatCmp                 0                       # attempts to use FU when none available (Count)
system.cpu.statFuBusy::SimdFloatCvt                 0                       # attempts to use FU when none available (Count)
system.cpu.statFuBusy::SimdFloatDiv                 0                       # attempts to use FU when none available (Count)
system.cpu.statFuBusy::SimdFloatMisc                0                       # attempts to use FU when none available (Count)
system.cpu.statFuBusy::SimdFloatMult                0                       # attempts to use FU when none available (Count)
system.cpu.statFuBusy::SimdFloatMultAcc             0                       # attempts to use FU when none available (Count)
system.cpu.statFuBusy::SimdFloatMatMultAcc            0                       # attempts to use FU when none available (Count)
system.cpu.statFuBusy::SimdFloatSqrt                0                       # attempts to use FU when none available (Count)
system.cpu.statFuBusy::SimdReduceAdd                0                       # attempts to use FU when none available (Count)
system.cpu.statFuBusy::SimdReduceAlu                0                       # attempts to use FU when none available (Count)
system.cpu.statFuBusy::SimdReduceCmp                0                       # attempts to use FU when none available (Count)
system.cpu.statFuBusy::SimdFloatReduceAdd            0                       # attempts to use FU when none available (Count)
system.cpu.statFuBusy::SimdFloatReduceCmp            0                       # attempts to use FU when none available (Count)
system.cpu.statFuBusy::SimdAes                      0                       # attempts to use FU when none available (Count)
system.cpu.statFuBusy::SimdAesMix                   0                       # attempts to use FU when none available (Count)
system.cpu.statFuBusy::SimdSha1Hash                 0                       # attempts to use FU when none available (Count)
system.cpu.statFuBusy::SimdSha1Hash2                0                       # attempts to use FU when none available (Count)
system.cpu.statFuBusy::SimdSha256Hash               0                       # attempts to use FU when none available (Count)
system.cpu.statFuBusy::SimdSha256Hash2              0                       # attempts to use FU when none available (Count)
system.cpu.statFuBusy::SimdShaSigma2                0                       # attempts to use FU when none available (Count)
system.cpu.statFuBusy::SimdShaSigma3                0                       # attempts to use FU when none available (Count)
system.cpu.statFuBusy::SimdPredAlu                  0                       # attempts to use FU when none available (Count)
system.cpu.statFuBusy::Matrix                       0                       # attempts to use FU when none available (Count)
system.cpu.statFuBusy::MatrixMov                    0                       # attempts to use FU when none available (Count)
system.cpu.statFuBusy::MatrixOP                     0                       # attempts to use FU when none available (Count)
system.cpu.statFuBusy::MemRead                      0                       # attempts to use FU when none available (Count)
system.cpu.statFuBusy::MemWrite                     0                       # attempts to use FU when none available (Count)
system.cpu.statFuBusy::FloatMemRead                 0                       # attempts to use FU when none available (Count)
system.cpu.statFuBusy::FloatMemWrite                0                       # attempts to use FU when none available (Count)
system.cpu.statFuBusy::IprAccess                    0                       # attempts to use FU when none available (Count)
system.cpu.statFuBusy::InstPrefetch                 0                       # attempts to use FU when none available (Count)
system.cpu.statFuBusy::VectorUnitStrideLoad            0                       # attempts to use FU when none available (Count)
system.cpu.statFuBusy::VectorUnitStrideStore            0                       # attempts to use FU when none available (Count)
system.cpu.statFuBusy::VectorUnitStrideMaskLoad            0                       # attempts to use FU when none available (Count)
system.cpu.statFuBusy::VectorUnitStrideMaskStore            0                       # attempts to use FU when none available (Count)
system.cpu.statFuBusy::VectorStridedLoad            0                       # attempts to use FU when none available (Count)
system.cpu.statFuBusy::VectorStridedStore            0                       # attempts to use FU when none available (Count)
system.cpu.statFuBusy::VectorIndexedLoad            0                       # attempts to use FU when none available (Count)
system.cpu.statFuBusy::VectorIndexedStore            0                       # attempts to use FU when none available (Count)
system.cpu.statFuBusy::VectorUnitStrideFaultOnlyFirstLoad            0                       # attempts to use FU when none available (Count)
system.cpu.statFuBusy::VectorWholeRegisterLoad            0                       # attempts to use FU when none available (Count)
system.cpu.statFuBusy::VectorWholeRegisterStore            0                       # attempts to use FU when none available (Count)
system.cpu.statFuBusy::VectorIntegerArith            0                       # attempts to use FU when none available (Count)
system.cpu.statFuBusy::VectorFloatArith             0                       # attempts to use FU when none available (Count)
system.cpu.statFuBusy::VectorFloatConvert            0                       # attempts to use FU when none available (Count)
system.cpu.statFuBusy::VectorIntegerReduce            0                       # attempts to use FU when none available (Count)
system.cpu.statFuBusy::VectorFloatReduce            0                       # attempts to use FU when none available (Count)
system.cpu.statFuBusy::VectorMisc                   0                       # attempts to use FU when none available (Count)
system.cpu.statFuBusy::VectorIntegerExtension            0                       # attempts to use FU when none available (Count)
system.cpu.statFuBusy::VectorConfig                 0                       # attempts to use FU when none available (Count)
system.cpu.statIssuedInstType_0::No_OpClass       372773      2.82%      2.82% # Number of instructions issued per FU type, per thread (Count)
system.cpu.statIssuedInstType_0::IntAlu       9147464     69.27%     72.10% # Number of instructions issued per FU type, per thread (Count)
system.cpu.statIssuedInstType_0::IntMult          953      0.01%     72.10% # Number of instructions issued per FU type, per thread (Count)
system.cpu.statIssuedInstType_0::IntDiv       1313469      9.95%     82.05% # Number of instructions issued per FU type, per thread (Count)
system.cpu.statIssuedInstType_0::FloatAdd          563      0.00%     82.06% # Number of instructions issued per FU type, per thread (Count)
system.cpu.statIssuedInstType_0::FloatCmp            0      0.00%     82.06% # Number of instructions issued per FU type, per thread (Count)
system.cpu.statIssuedInstType_0::FloatCvt            0      0.00%     82.06% # Number of instructions issued per FU type, per thread (Count)
system.cpu.statIssuedInstType_0::FloatMult            0      0.00%     82.06% # Number of instructions issued per FU type, per thread (Count)
system.cpu.statIssuedInstType_0::FloatMultAcc            0      0.00%     82.06% # Number of instructions issued per FU type, per thread (Count)
system.cpu.statIssuedInstType_0::FloatDiv            0      0.00%     82.06% # Number of instructions issued per FU type, per thread (Count)
system.cpu.statIssuedInstType_0::FloatMisc            0      0.00%     82.06% # Number of instructions issued per FU type, per thread (Count)
system.cpu.statIssuedInstType_0::FloatSqrt            0      0.00%     82.06% # Number of instructions issued per FU type, per thread (Count)
system.cpu.statIssuedInstType_0::SimdAdd          445      0.00%     82.06% # Number of instructions issued per FU type, per thread (Count)
system.cpu.statIssuedInstType_0::SimdAddAcc            0      0.00%     82.06% # Number of instructions issued per FU type, per thread (Count)
system.cpu.statIssuedInstType_0::SimdAlu         1163      0.01%     82.07% # Number of instructions issued per FU type, per thread (Count)
system.cpu.statIssuedInstType_0::SimdCmp            2      0.00%     82.07% # Number of instructions issued per FU type, per thread (Count)
system.cpu.statIssuedInstType_0::SimdCvt         1078      0.01%     82.08% # Number of instructions issued per FU type, per thread (Count)
system.cpu.statIssuedInstType_0::SimdMisc         1019      0.01%     82.08% # Number of instructions issued per FU type, per thread (Count)
system.cpu.statIssuedInstType_0::SimdMult            0      0.00%     82.08% # Number of instructions issued per FU type, per thread (Count)
system.cpu.statIssuedInstType_0::SimdMultAcc            0      0.00%     82.08% # Number of instructions issued per FU type, per thread (Count)
system.cpu.statIssuedInstType_0::SimdMatMultAcc            0      0.00%     82.08% # Number of instructions issued per FU type, per thread (Count)
system.cpu.statIssuedInstType_0::SimdShift          380      0.00%     82.09% # Number of instructions issued per FU type, per thread (Count)
system.cpu.statIssuedInstType_0::SimdShiftAcc            0      0.00%     82.09% # Number of instructions issued per FU type, per thread (Count)
system.cpu.statIssuedInstType_0::SimdDiv            0      0.00%     82.09% # Number of instructions issued per FU type, per thread (Count)
system.cpu.statIssuedInstType_0::SimdSqrt            0      0.00%     82.09% # Number of instructions issued per FU type, per thread (Count)
system.cpu.statIssuedInstType_0::SimdFloatAdd            0      0.00%     82.09% # Number of instructions issued per FU type, per thread (Count)
system.cpu.statIssuedInstType_0::SimdFloatAlu            0      0.00%     82.09% # Number of instructions issued per FU type, per thread (Count)
system.cpu.statIssuedInstType_0::SimdFloatCmp            0      0.00%     82.09% # Number of instructions issued per FU type, per thread (Count)
system.cpu.statIssuedInstType_0::SimdFloatCvt            0      0.00%     82.09% # Number of instructions issued per FU type, per thread (Count)
system.cpu.statIssuedInstType_0::SimdFloatDiv            0      0.00%     82.09% # Number of instructions issued per FU type, per thread (Count)
system.cpu.statIssuedInstType_0::SimdFloatMisc            0      0.00%     82.09% # Number of instructions issued per FU type, per thread (Count)
system.cpu.statIssuedInstType_0::SimdFloatMult            0      0.00%     82.09% # Number of instructions issued per FU type, per thread (Count)
system.cpu.statIssuedInstType_0::SimdFloatMultAcc            0      0.00%     82.09% # Number of instructions issued per FU type, per thread (Count)
system.cpu.statIssuedInstType_0::SimdFloatMatMultAcc            0      0.00%     82.09% # Number of instructions issued per FU type, per thread (Count)
system.cpu.statIssuedInstType_0::SimdFloatSqrt            0      0.00%     82.09% # Number of instructions issued per FU type, per thread (Count)
system.cpu.statIssuedInstType_0::SimdReduceAdd            0      0.00%     82.09% # Number of instructions issued per FU type, per thread (Count)
system.cpu.statIssuedInstType_0::SimdReduceAlu            0      0.00%     82.09% # Number of instructions issued per FU type, per thread (Count)
system.cpu.statIssuedInstType_0::SimdReduceCmp            0      0.00%     82.09% # Number of instructions issued per FU type, per thread (Count)
system.cpu.statIssuedInstType_0::SimdFloatReduceAdd            0      0.00%     82.09% # Number of instructions issued per FU type, per thread (Count)
system.cpu.statIssuedInstType_0::SimdFloatReduceCmp            0      0.00%     82.09% # Number of instructions issued per FU type, per thread (Count)
system.cpu.statIssuedInstType_0::SimdAes            0      0.00%     82.09% # Number of instructions issued per FU type, per thread (Count)
system.cpu.statIssuedInstType_0::SimdAesMix            0      0.00%     82.09% # Number of instructions issued per FU type, per thread (Count)
system.cpu.statIssuedInstType_0::SimdSha1Hash            0      0.00%     82.09% # Number of instructions issued per FU type, per thread (Count)
system.cpu.statIssuedInstType_0::SimdSha1Hash2            0      0.00%     82.09% # Number of instructions issued per FU type, per thread (Count)
system.cpu.statIssuedInstType_0::SimdSha256Hash            0      0.00%     82.09% # Number of instructions issued per FU type, per thread (Count)
system.cpu.statIssuedInstType_0::SimdSha256Hash2            0      0.00%     82.09% # Number of instructions issued per FU type, per thread (Count)
system.cpu.statIssuedInstType_0::SimdShaSigma2            0      0.00%     82.09% # Number of instructions issued per FU type, per thread (Count)
system.cpu.statIssuedInstType_0::SimdShaSigma3            0      0.00%     82.09% # Number of instructions issued per FU type, per thread (Count)
system.cpu.statIssuedInstType_0::SimdPredAlu            0      0.00%     82.09% # Number of instructions issued per FU type, per thread (Count)
system.cpu.statIssuedInstType_0::Matrix             0      0.00%     82.09% # Number of instructions issued per FU type, per thread (Count)
system.cpu.statIssuedInstType_0::MatrixMov            0      0.00%     82.09% # Number of instructions issued per FU type, per thread (Count)
system.cpu.statIssuedInstType_0::MatrixOP            0      0.00%     82.09% # Number of instructions issued per FU type, per thread (Count)
system.cpu.statIssuedInstType_0::MemRead      1286569      9.74%     91.83% # Number of instructions issued per FU type, per thread (Count)
system.cpu.statIssuedInstType_0::MemWrite      1076339      8.15%     99.98% # Number of instructions issued per FU type, per thread (Count)
system.cpu.statIssuedInstType_0::FloatMemRead         1415      0.01%     99.99% # Number of instructions issued per FU type, per thread (Count)
system.cpu.statIssuedInstType_0::FloatMemWrite         1184      0.01%    100.00% # Number of instructions issued per FU type, per thread (Count)
system.cpu.statIssuedInstType_0::IprAccess            0      0.00%    100.00% # Number of instructions issued per FU type, per thread (Count)
system.cpu.statIssuedInstType_0::InstPrefetch            0      0.00%    100.00% # Number of instructions issued per FU type, per thread (Count)
system.cpu.statIssuedInstType_0::VectorUnitStrideLoad            0      0.00%    100.00% # Number of instructions issued per FU type, per thread (Count)
system.cpu.statIssuedInstType_0::VectorUnitStrideStore            0      0.00%    100.00% # Number of instructions issued per FU type, per thread (Count)
system.cpu.statIssuedInstType_0::VectorUnitStrideMaskLoad            0      0.00%    100.00% # Number of instructions issued per FU type, per thread (Count)
system.cpu.statIssuedInstType_0::VectorUnitStrideMaskStore            0      0.00%    100.00% # Number of instructions issued per FU type, per thread (Count)
system.cpu.statIssuedInstType_0::VectorStridedLoad            0      0.00%    100.00% # Number of instructions issued per FU type, per thread (Count)
system.cpu.statIssuedInstType_0::VectorStridedStore            0      0.00%    100.00% # Number of instructions issued per FU type, per thread (Count)
system.cpu.statIssuedInstType_0::VectorIndexedLoad            0      0.00%    100.00% # Number of instructions issued per FU type, per thread (Count)
system.cpu.statIssuedInstType_0::VectorIndexedStore            0      0.00%    100.00% # Number of instructions issued per FU type, per thread (Count)
system.cpu.statIssuedInstType_0::VectorUnitStrideFaultOnlyFirstLoad            0      0.00%    100.00% # Number of instructions issued per FU type, per thread (Count)
system.cpu.statIssuedInstType_0::VectorWholeRegisterLoad            0      0.00%    100.00% # Number of instructions issued per FU type, per thread (Count)
system.cpu.statIssuedInstType_0::VectorWholeRegisterStore            0      0.00%    100.00% # Number of instructions issued per FU type, per thread (Count)
system.cpu.statIssuedInstType_0::VectorIntegerArith            0      0.00%    100.00% # Number of instructions issued per FU type, per thread (Count)
system.cpu.statIssuedInstType_0::VectorFloatArith            0      0.00%    100.00% # Number of instructions issued per FU type, per thread (Count)
system.cpu.statIssuedInstType_0::VectorFloatConvert            0      0.00%    100.00% # Number of instructions issued per FU type, per thread (Count)
system.cpu.statIssuedInstType_0::VectorIntegerReduce            0      0.00%    100.00% # Number of instructions issued per FU type, per thread (Count)
system.cpu.statIssuedInstType_0::VectorFloatReduce            0      0.00%    100.00% # Number of instructions issued per FU type, per thread (Count)
system.cpu.statIssuedInstType_0::VectorMisc            0      0.00%    100.00% # Number of instructions issued per FU type, per thread (Count)
system.cpu.statIssuedInstType_0::VectorIntegerExtension            0      0.00%    100.00% # Number of instructions issued per FU type, per thread (Count)
system.cpu.statIssuedInstType_0::VectorConfig            0      0.00%    100.00% # Number of instructions issued per FU type, per thread (Count)
system.cpu.statIssuedInstType_0::total       13204816                       # Number of instructions issued per FU type, per thread (Count)
system.cpu.issueRate                         0.826391                       # Inst issue rate ((Count/Cycle))
system.cpu.fuBusy                                   0                       # FU busy when requested (Count)
system.cpu.fuBusyRate                               0                       # FU busy rate (busy events/executed inst) ((Count/Count))
system.cpu.intInstQueueReads                 42424004                       # Number of integer instruction queue reads (Count)
system.cpu.intInstQueueWrites                20455464                       # Number of integer instruction queue writes (Count)
system.cpu.intInstQueueWakeupAccesses        13153947                       # Number of integer instruction queue wakeup accesses (Count)
system.cpu.fpInstQueueReads                     15357                       # Number of floating instruction queue reads (Count)
system.cpu.fpInstQueueWrites                    10043                       # Number of floating instruction queue writes (Count)
system.cpu.fpInstQueueWakeupAccesses             7337                       # Number of floating instruction queue wakeup accesses (Count)
system.cpu.vecInstQueueReads                        0                       # Number of vector instruction queue reads (Count)
system.cpu.vecInstQueueWrites                       0                       # Number of vector instruction queue writes (Count)
system.cpu.vecInstQueueWakeupAccesses               0                       # Number of vector instruction queue wakeup accesses (Count)
system.cpu.intAluAccesses                    12824405                       # Number of integer alu accesses (Count)
system.cpu.fpAluAccesses                         7638                       # Number of floating point alu accesses (Count)
system.cpu.vecAluAccesses                           0                       # Number of vector alu accesses (Count)
system.cpu.numSquashedInsts                     10388                       # Number of squashed instructions skipped in execute (Count)
system.cpu.numSwp                                   0                       # Number of swp insts executed (Count)
system.cpu.timesIdled                             349                       # Number of times that the entire CPU went into an idle state and unscheduled itself (Count)
system.cpu.idleCycles                           14710                       # Total number of cycles that the CPU has spent unscheduled due to idling (Cycle)
system.cpu.MemDepUnit__0.insertedLoads        1753868                       # Number of loads inserted to the mem dependence unit. (Count)
system.cpu.MemDepUnit__0.insertedStores       1427068                       # Number of stores inserted to the mem dependence unit. (Count)
system.cpu.MemDepUnit__0.conflictingLoads      1354417                       # Number of conflicting loads. (Count)
system.cpu.MemDepUnit__0.conflictingStores       989810                       # Number of conflicting stores. (Count)
system.cpu.MemDepUnit__1.insertedLoads              0                       # Number of loads inserted to the mem dependence unit. (Count)
system.cpu.MemDepUnit__1.insertedStores             0                       # Number of stores inserted to the mem dependence unit. (Count)
system.cpu.MemDepUnit__1.conflictingLoads            0                       # Number of conflicting loads. (Count)
system.cpu.MemDepUnit__1.conflictingStores            0                       # Number of conflicting stores. (Count)
system.cpu.MemDepUnit__2.insertedLoads              0                       # Number of loads inserted to the mem dependence unit. (Count)
system.cpu.MemDepUnit__2.insertedStores             0                       # Number of stores inserted to the mem dependence unit. (Count)
system.cpu.MemDepUnit__2.conflictingLoads            0                       # Number of conflicting loads. (Count)
system.cpu.MemDepUnit__2.conflictingStores            0                       # Number of conflicting stores. (Count)
system.cpu.MemDepUnit__3.insertedLoads              0                       # Number of loads inserted to the mem dependence unit. (Count)
system.cpu.MemDepUnit__3.insertedStores             0                       # Number of stores inserted to the mem dependence unit. (Count)
system.cpu.MemDepUnit__3.conflictingLoads            0                       # Number of conflicting loads. (Count)
system.cpu.MemDepUnit__3.conflictingStores            0                       # Number of conflicting stores. (Count)
system.cpu.branchPred.lookups_0::NoBranch          297      0.02%      0.02% # Number of BP lookups (Count)
system.cpu.branchPred.lookups_0::Return        272216     14.17%     14.18% # Number of BP lookups (Count)
system.cpu.branchPred.lookups_0::CallDirect       291482     15.17%     29.36% # Number of BP lookups (Count)
system.cpu.branchPred.lookups_0::CallIndirect          110      0.01%     29.36% # Number of BP lookups (Count)
system.cpu.branchPred.lookups_0::DirectCond      1255232     65.33%     94.69% # Number of BP lookups (Count)
system.cpu.branchPred.lookups_0::DirectUncond         2707      0.14%     94.84% # Number of BP lookups (Count)
system.cpu.branchPred.lookups_0::IndirectCond            0      0.00%     94.84% # Number of BP lookups (Count)
system.cpu.branchPred.lookups_0::IndirectUncond        99227      5.16%    100.00% # Number of BP lookups (Count)
system.cpu.branchPred.lookups_0::total        1921271                       # Number of BP lookups (Count)
system.cpu.branchPred.squashes_0::NoBranch          257      0.03%      0.03% # Number of branches that got squashed (completely removed) as an earlier branch was mispredicted. (Count)
system.cpu.branchPred.squashes_0::Return       109383     14.83%     14.87% # Number of branches that got squashed (completely removed) as an earlier branch was mispredicted. (Count)
system.cpu.branchPred.squashes_0::CallDirect       128731     17.46%     32.32% # Number of branches that got squashed (completely removed) as an earlier branch was mispredicted. (Count)
system.cpu.branchPred.squashes_0::CallIndirect           23      0.00%     32.33% # Number of branches that got squashed (completely removed) as an earlier branch was mispredicted. (Count)
system.cpu.branchPred.squashes_0::DirectCond       453802     61.54%     93.86% # Number of branches that got squashed (completely removed) as an earlier branch was mispredicted. (Count)
system.cpu.branchPred.squashes_0::DirectUncond          256      0.03%     93.90% # Number of branches that got squashed (completely removed) as an earlier branch was mispredicted. (Count)
system.cpu.branchPred.squashes_0::IndirectCond            0      0.00%     93.90% # Number of branches that got squashed (completely removed) as an earlier branch was mispredicted. (Count)
system.cpu.branchPred.squashes_0::IndirectUncond        45008      6.10%    100.00% # Number of branches that got squashed (completely removed) as an earlier branch was mispredicted. (Count)
system.cpu.branchPred.squashes_0::total        737460                       # Number of branches that got squashed (completely removed) as an earlier branch was mispredicted. (Count)
system.cpu.branchPred.corrected_0::NoBranch           46      0.08%      0.08% # Number of branches that got corrected but not yet commited. Branches get corrected by decode or after execute. Also a branch misprediction can be detected out-of-order. Therefore, a corrected branch might not end up beeing committed in case an even earlier branch was mispredicted (Count)
system.cpu.branchPred.corrected_0::Return            0      0.00%      0.08% # Number of branches that got corrected but not yet commited. Branches get corrected by decode or after execute. Also a branch misprediction can be detected out-of-order. Therefore, a corrected branch might not end up beeing committed in case an even earlier branch was mispredicted (Count)
system.cpu.branchPred.corrected_0::CallDirect          272      0.50%      0.58% # Number of branches that got corrected but not yet commited. Branches get corrected by decode or after execute. Also a branch misprediction can be detected out-of-order. Therefore, a corrected branch might not end up beeing committed in case an even earlier branch was mispredicted (Count)
system.cpu.branchPred.corrected_0::CallIndirect           88      0.16%      0.74% # Number of branches that got corrected but not yet commited. Branches get corrected by decode or after execute. Also a branch misprediction can be detected out-of-order. Therefore, a corrected branch might not end up beeing committed in case an even earlier branch was mispredicted (Count)
system.cpu.branchPred.corrected_0::DirectCond        54094     98.58%     99.32% # Number of branches that got corrected but not yet commited. Branches get corrected by decode or after execute. Also a branch misprediction can be detected out-of-order. Therefore, a corrected branch might not end up beeing committed in case an even earlier branch was mispredicted (Count)
system.cpu.branchPred.corrected_0::DirectUncond          224      0.41%     99.73% # Number of branches that got corrected but not yet commited. Branches get corrected by decode or after execute. Also a branch misprediction can be detected out-of-order. Therefore, a corrected branch might not end up beeing committed in case an even earlier branch was mispredicted (Count)
system.cpu.branchPred.corrected_0::IndirectCond            0      0.00%     99.73% # Number of branches that got corrected but not yet commited. Branches get corrected by decode or after execute. Also a branch misprediction can be detected out-of-order. Therefore, a corrected branch might not end up beeing committed in case an even earlier branch was mispredicted (Count)
system.cpu.branchPred.corrected_0::IndirectUncond          148      0.27%    100.00% # Number of branches that got corrected but not yet commited. Branches get corrected by decode or after execute. Also a branch misprediction can be detected out-of-order. Therefore, a corrected branch might not end up beeing committed in case an even earlier branch was mispredicted (Count)
system.cpu.branchPred.corrected_0::total        54872                       # Number of branches that got corrected but not yet commited. Branches get corrected by decode or after execute. Also a branch misprediction can be detected out-of-order. Therefore, a corrected branch might not end up beeing committed in case an even earlier branch was mispredicted (Count)
system.cpu.branchPred.earlyResteers_0::NoBranch            0                       # Number of branches that got redirected after decode. (Count)
system.cpu.branchPred.earlyResteers_0::Return            0                       # Number of branches that got redirected after decode. (Count)
system.cpu.branchPred.earlyResteers_0::CallDirect            0                       # Number of branches that got redirected after decode. (Count)
system.cpu.branchPred.earlyResteers_0::CallIndirect            0                       # Number of branches that got redirected after decode. (Count)
system.cpu.branchPred.earlyResteers_0::DirectCond            0                       # Number of branches that got redirected after decode. (Count)
system.cpu.branchPred.earlyResteers_0::DirectUncond            0                       # Number of branches that got redirected after decode. (Count)
system.cpu.branchPred.earlyResteers_0::IndirectCond            0                       # Number of branches that got redirected after decode. (Count)
system.cpu.branchPred.earlyResteers_0::IndirectUncond            0                       # Number of branches that got redirected after decode. (Count)
system.cpu.branchPred.earlyResteers_0::total            0                       # Number of branches that got redirected after decode. (Count)
system.cpu.branchPred.committed_0::NoBranch           40      0.00%      0.00% # Number of branches finally committed  (Count)
system.cpu.branchPred.committed_0::Return       162831     13.75%     13.76% # Number of branches finally committed  (Count)
system.cpu.branchPred.committed_0::CallDirect       162749     13.75%     27.51% # Number of branches finally committed  (Count)
system.cpu.branchPred.committed_0::CallIndirect           87      0.01%     27.51% # Number of branches finally committed  (Count)
system.cpu.branchPred.committed_0::DirectCond       801426     67.70%     95.21% # Number of branches finally committed  (Count)
system.cpu.branchPred.committed_0::DirectUncond         2451      0.21%     95.42% # Number of branches finally committed  (Count)
system.cpu.branchPred.committed_0::IndirectCond            0      0.00%     95.42% # Number of branches finally committed  (Count)
system.cpu.branchPred.committed_0::IndirectUncond        54218      4.58%    100.00% # Number of branches finally committed  (Count)
system.cpu.branchPred.committed_0::total      1183802                       # Number of branches finally committed  (Count)
system.cpu.branchPred.mispredicted_0::NoBranch           40      0.07%      0.07% # Number of committed branches that were mispredicted. (Count)
system.cpu.branchPred.mispredicted_0::Return            0      0.00%      0.07% # Number of committed branches that were mispredicted. (Count)
system.cpu.branchPred.mispredicted_0::CallDirect          178      0.33%      0.40% # Number of committed branches that were mispredicted. (Count)
system.cpu.branchPred.mispredicted_0::CallIndirect           87      0.16%      0.56% # Number of committed branches that were mispredicted. (Count)
system.cpu.branchPred.mispredicted_0::DirectCond        53960     98.94%     99.50% # Number of committed branches that were mispredicted. (Count)
system.cpu.branchPred.mispredicted_0::DirectUncond          134      0.25%     99.75% # Number of committed branches that were mispredicted. (Count)
system.cpu.branchPred.mispredicted_0::IndirectCond            0      0.00%     99.75% # Number of committed branches that were mispredicted. (Count)
system.cpu.branchPred.mispredicted_0::IndirectUncond          139      0.25%    100.00% # Number of committed branches that were mispredicted. (Count)
system.cpu.branchPred.mispredicted_0::total        54538                       # Number of committed branches that were mispredicted. (Count)
system.cpu.branchPred.targetProvider_0::NoTarget       865530     45.05%     45.05% # The component providing the target for taken branches (Count)
system.cpu.branchPred.targetProvider_0::BTB       684595     35.63%     80.68% # The component providing the target for taken branches (Count)
system.cpu.branchPred.targetProvider_0::RAS       272216     14.17%     94.85% # The component providing the target for taken branches (Count)
system.cpu.branchPred.targetProvider_0::Indirect        98930      5.15%    100.00% # The component providing the target for taken branches (Count)
system.cpu.branchPred.targetProvider_0::total      1921271                       # The component providing the target for taken branches (Count)
system.cpu.branchPred.targetWrong_0::NoBranch         5554     90.46%     90.46% # Number of branches where the target was incorrect or not available at prediction time. (Count)
system.cpu.branchPred.targetWrong_0::Return          574      9.35%     99.80% # Number of branches where the target was incorrect or not available at prediction time. (Count)
system.cpu.branchPred.targetWrong_0::CallDirect            0      0.00%     99.80% # Number of branches where the target was incorrect or not available at prediction time. (Count)
system.cpu.branchPred.targetWrong_0::CallIndirect           12      0.20%    100.00% # Number of branches where the target was incorrect or not available at prediction time. (Count)
system.cpu.branchPred.targetWrong_0::DirectCond            0      0.00%    100.00% # Number of branches where the target was incorrect or not available at prediction time. (Count)
system.cpu.branchPred.targetWrong_0::DirectUncond            0      0.00%    100.00% # Number of branches where the target was incorrect or not available at prediction time. (Count)
system.cpu.branchPred.targetWrong_0::IndirectCond            0      0.00%    100.00% # Number of branches where the target was incorrect or not available at prediction time. (Count)
system.cpu.branchPred.targetWrong_0::IndirectUncond            0      0.00%    100.00% # Number of branches where the target was incorrect or not available at prediction time. (Count)
system.cpu.branchPred.targetWrong_0::total         6140                       # Number of branches where the target was incorrect or not available at prediction time. (Count)
system.cpu.branchPred.condPredicted           1255529                       # Number of conditional branches predicted (Count)
system.cpu.branchPred.condPredictedTaken       483832                       # Number of conditional branches predicted as taken (Count)
system.cpu.branchPred.condIncorrect             54872                       # Number of conditional branches incorrect (Count)
system.cpu.branchPred.predTakenBTBMiss            590                       # Number of branches predicted taken but missed in BTB (Count)
system.cpu.branchPred.NotTakenMispredicted        47780                       # Number branches predicted 'not taken' but turned out to be taken (Count)
system.cpu.branchPred.TakenMispredicted          7092                       # Number branches predicted taken but are actually not taken (Count)
system.cpu.branchPred.BTBLookups              1921271                       # Number of BTB lookups (Count)
system.cpu.branchPred.BTBUpdates                47498                       # Number of BTB updates (Count)
system.cpu.branchPred.BTBHits                  968368                       # Number of BTB hits (Count)
system.cpu.branchPred.BTBHitRatio            0.504025                       # BTB Hit Ratio (Ratio)
system.cpu.branchPred.BTBMispredicted            1158                       # Number BTB mispredictions. No target found or target wrong (Count)
system.cpu.branchPred.indirectLookups           99337                       # Number of indirect predictor lookups. (Count)
system.cpu.branchPred.indirectHits              98930                       # Number of indirect target hits. (Count)
system.cpu.branchPred.indirectMisses              407                       # Number of indirect misses. (Count)
system.cpu.branchPred.indirectMispredicted            0                       # Number of mispredicted indirect branches. (Count)
system.cpu.branchPred.btb.lookups::NoBranch          297      0.02%      0.02% # Number of BTB lookups (Count)
system.cpu.branchPred.btb.lookups::Return       272216     14.17%     14.18% # Number of BTB lookups (Count)
system.cpu.branchPred.btb.lookups::CallDirect       291482     15.17%     29.36% # Number of BTB lookups (Count)
system.cpu.branchPred.btb.lookups::CallIndirect          110      0.01%     29.36% # Number of BTB lookups (Count)
system.cpu.branchPred.btb.lookups::DirectCond      1255232     65.33%     94.69% # Number of BTB lookups (Count)
system.cpu.branchPred.btb.lookups::DirectUncond         2707      0.14%     94.84% # Number of BTB lookups (Count)
system.cpu.branchPred.btb.lookups::IndirectCond            0      0.00%     94.84% # Number of BTB lookups (Count)
system.cpu.branchPred.btb.lookups::IndirectUncond        99227      5.16%    100.00% # Number of BTB lookups (Count)
system.cpu.branchPred.btb.lookups::total      1921271                       # Number of BTB lookups (Count)
system.cpu.branchPred.btb.misses::NoBranch           95      0.01%      0.01% # Number of BTB misses (Count)
system.cpu.branchPred.btb.misses::Return       272216     28.57%     28.58% # Number of BTB misses (Count)
system.cpu.branchPred.btb.misses::CallDirect          319      0.03%     28.61% # Number of BTB misses (Count)
system.cpu.branchPred.btb.misses::CallIndirect          110      0.01%     28.62% # Number of BTB misses (Count)
system.cpu.branchPred.btb.misses::DirectCond       580667     60.94%     89.56% # Number of BTB misses (Count)
system.cpu.branchPred.btb.misses::DirectUncond          269      0.03%     89.59% # Number of BTB misses (Count)
system.cpu.branchPred.btb.misses::IndirectCond            0      0.00%     89.59% # Number of BTB misses (Count)
system.cpu.branchPred.btb.misses::IndirectUncond        99227     10.41%    100.00% # Number of BTB misses (Count)
system.cpu.branchPred.btb.misses::total        952903                       # Number of BTB misses (Count)
system.cpu.branchPred.btb.updates::NoBranch            0      0.00%      0.00% # Number of BTB updates (Count)
system.cpu.branchPred.btb.updates::Return            0      0.00%      0.00% # Number of BTB updates (Count)
system.cpu.branchPred.btb.updates::CallDirect          272      0.57%      0.57% # Number of BTB updates (Count)
system.cpu.branchPred.btb.updates::CallIndirect            0      0.00%      0.57% # Number of BTB updates (Count)
system.cpu.branchPred.btb.updates::DirectCond        47002     98.96%     99.53% # Number of BTB updates (Count)
system.cpu.branchPred.btb.updates::DirectUncond          224      0.47%    100.00% # Number of BTB updates (Count)
system.cpu.branchPred.btb.updates::IndirectCond            0      0.00%    100.00% # Number of BTB updates (Count)
system.cpu.branchPred.btb.updates::IndirectUncond            0      0.00%    100.00% # Number of BTB updates (Count)
system.cpu.branchPred.btb.updates::total        47498                       # Number of BTB updates (Count)
system.cpu.branchPred.btb.mispredict::NoBranch            0      0.00%      0.00% # Number of BTB mispredictions. No target found or target wrong. (Count)
system.cpu.branchPred.btb.mispredict::Return            0      0.00%      0.00% # Number of BTB mispredictions. No target found or target wrong. (Count)
system.cpu.branchPred.btb.mispredict::CallDirect          272      0.57%      0.57% # Number of BTB mispredictions. No target found or target wrong. (Count)
system.cpu.branchPred.btb.mispredict::CallIndirect            0      0.00%      0.57% # Number of BTB mispredictions. No target found or target wrong. (Count)
system.cpu.branchPred.btb.mispredict::DirectCond        47002     98.96%     99.53% # Number of BTB mispredictions. No target found or target wrong. (Count)
system.cpu.branchPred.btb.mispredict::DirectUncond          224      0.47%    100.00% # Number of BTB mispredictions. No target found or target wrong. (Count)
system.cpu.branchPred.btb.mispredict::IndirectCond            0      0.00%    100.00% # Number of BTB mispredictions. No target found or target wrong. (Count)
system.cpu.branchPred.btb.mispredict::IndirectUncond            0      0.00%    100.00% # Number of BTB mispredictions. No target found or target wrong. (Count)
system.cpu.branchPred.btb.mispredict::total        47498                       # Number of BTB mispredictions. No target found or target wrong. (Count)
system.cpu.branchPred.btb.power_state.pwrStateResidencyTicks::UNDEFINED  15978896000                       # Cumulative time (in ticks) in various power states (Tick)
system.cpu.branchPred.indirectBranchPred.lookups        99337                       # Number of lookups (Count)
system.cpu.branchPred.indirectBranchPred.hits        98930                       # Number of hits of a tag (Count)
system.cpu.branchPred.indirectBranchPred.misses          407                       # Number of misses (Count)
system.cpu.branchPred.indirectBranchPred.targetRecords          236                       # Number of targets that where recorded/installed in the cache (Count)
system.cpu.branchPred.indirectBranchPred.indirectRecords        99573                       # Number of indirect branches/calls recorded in the indirect hist (Count)
system.cpu.branchPred.indirectBranchPred.speculativeOverflows            3                       # Number of times more than the allowed capacity for speculative branches/calls where in flight and destroy the path history (Count)
system.cpu.branchPred.ras.pushes               400975                       # Number of times a PC was pushed onto the RAS (Count)
system.cpu.branchPred.ras.pops                 400970                       # Number of times a PC was poped from the RAS (Count)
system.cpu.branchPred.ras.squashes             238137                       # Number of times the stack operation was squashed due to wrong speculation. (Count)
system.cpu.branchPred.ras.used                 162831                       # Number of times the RAS is the provider (Count)
system.cpu.branchPred.ras.correct              162831                       # Number of times the RAS is the provider and the prediction is correct (Count)
system.cpu.branchPred.ras.incorrect                 0                       # Number of times the RAS is the provider and the prediction is wrong (Count)
system.cpu.commit.commitSquashedInsts         4944974                       # The number of squashed insts skipped by commit (Count)
system.cpu.commit.commitNonSpecStalls          324024                       # The number of times commit has been forced to stall to communicate backwards (Count)
system.cpu.commit.branchMispredicts             54437                       # The number of times a branch was mispredicted (Count)
system.cpu.commit.numCommittedDist::samples     13478245                       # Number of insts commited each cycle (Count)
system.cpu.commit.numCommittedDist::mean     0.784160                       # Number of insts commited each cycle (Count)
system.cpu.commit.numCommittedDist::stdev     0.921888                       # Number of insts commited each cycle (Count)
system.cpu.commit.numCommittedDist::underflows            0      0.00%      0.00% # Number of insts commited each cycle (Count)
system.cpu.commit.numCommittedDist::0         7495956     55.62%     55.62% # Number of insts commited each cycle (Count)
system.cpu.commit.numCommittedDist::1         1395473     10.35%     65.97% # Number of insts commited each cycle (Count)
system.cpu.commit.numCommittedDist::2         4586816     34.03%    100.00% # Number of insts commited each cycle (Count)
system.cpu.commit.numCommittedDist::overflows            0      0.00%    100.00% # Number of insts commited each cycle (Count)
system.cpu.commit.numCommittedDist::min_value            0                       # Number of insts commited each cycle (Count)
system.cpu.commit.numCommittedDist::max_value            2                       # Number of insts commited each cycle (Count)
system.cpu.commit.numCommittedDist::total     13478245                       # Number of insts commited each cycle (Count)
system.cpu.commit.amos                              0                       # Number of atomic instructions committed (Count)
system.cpu.commit.membars                      216016                       # Number of memory barriers committed (Count)
system.cpu.commit.functionCalls                162836                       # Number of function calls committed. (Count)
system.cpu.commit.committedInstType_0::No_OpClass       217283      2.06%      2.06% # Class of committed instruction (Count)
system.cpu.commit.committedInstType_0::IntAlu      7058007     66.78%     68.84% # Class of committed instruction (Count)
system.cpu.commit.committedInstType_0::IntMult          844      0.01%     68.84% # Class of committed instruction (Count)
system.cpu.commit.committedInstType_0::IntDiv      1257938     11.90%     80.75% # Class of committed instruction (Count)
system.cpu.commit.committedInstType_0::FloatAdd          405      0.00%     80.75% # Class of committed instruction (Count)
system.cpu.commit.committedInstType_0::FloatCmp            0      0.00%     80.75% # Class of committed instruction (Count)
system.cpu.commit.committedInstType_0::FloatCvt            0      0.00%     80.75% # Class of committed instruction (Count)
system.cpu.commit.committedInstType_0::FloatMult            0      0.00%     80.75% # Class of committed instruction (Count)
system.cpu.commit.committedInstType_0::FloatMultAcc            0      0.00%     80.75% # Class of committed instruction (Count)
system.cpu.commit.committedInstType_0::FloatDiv            0      0.00%     80.75% # Class of committed instruction (Count)
system.cpu.commit.committedInstType_0::FloatMisc            0      0.00%     80.75% # Class of committed instruction (Count)
system.cpu.commit.committedInstType_0::FloatSqrt            0      0.00%     80.75% # Class of committed instruction (Count)
system.cpu.commit.committedInstType_0::SimdAdd          432      0.00%     80.75% # Class of committed instruction (Count)
system.cpu.commit.committedInstType_0::SimdAddAcc            0      0.00%     80.75% # Class of committed instruction (Count)
system.cpu.commit.committedInstType_0::SimdAlu          928      0.01%     80.76% # Class of committed instruction (Count)
system.cpu.commit.committedInstType_0::SimdCmp            2      0.00%     80.76% # Class of committed instruction (Count)
system.cpu.commit.committedInstType_0::SimdCvt          976      0.01%     80.77% # Class of committed instruction (Count)
system.cpu.commit.committedInstType_0::SimdMisc          998      0.01%     80.78% # Class of committed instruction (Count)
system.cpu.commit.committedInstType_0::SimdMult            0      0.00%     80.78% # Class of committed instruction (Count)
system.cpu.commit.committedInstType_0::SimdMultAcc            0      0.00%     80.78% # Class of committed instruction (Count)
system.cpu.commit.committedInstType_0::SimdMatMultAcc            0      0.00%     80.78% # Class of committed instruction (Count)
system.cpu.commit.committedInstType_0::SimdShift          220      0.00%     80.78% # Class of committed instruction (Count)
system.cpu.commit.committedInstType_0::SimdShiftAcc            0      0.00%     80.78% # Class of committed instruction (Count)
system.cpu.commit.committedInstType_0::SimdDiv            0      0.00%     80.78% # Class of committed instruction (Count)
system.cpu.commit.committedInstType_0::SimdSqrt            0      0.00%     80.78% # Class of committed instruction (Count)
system.cpu.commit.committedInstType_0::SimdFloatAdd            0      0.00%     80.78% # Class of committed instruction (Count)
system.cpu.commit.committedInstType_0::SimdFloatAlu            0      0.00%     80.78% # Class of committed instruction (Count)
system.cpu.commit.committedInstType_0::SimdFloatCmp            0      0.00%     80.78% # Class of committed instruction (Count)
system.cpu.commit.committedInstType_0::SimdFloatCvt            0      0.00%     80.78% # Class of committed instruction (Count)
system.cpu.commit.committedInstType_0::SimdFloatDiv            0      0.00%     80.78% # Class of committed instruction (Count)
system.cpu.commit.committedInstType_0::SimdFloatMisc            0      0.00%     80.78% # Class of committed instruction (Count)
system.cpu.commit.committedInstType_0::SimdFloatMult            0      0.00%     80.78% # Class of committed instruction (Count)
system.cpu.commit.committedInstType_0::SimdFloatMultAcc            0      0.00%     80.78% # Class of committed instruction (Count)
system.cpu.commit.committedInstType_0::SimdFloatMatMultAcc            0      0.00%     80.78% # Class of committed instruction (Count)
system.cpu.commit.committedInstType_0::SimdFloatSqrt            0      0.00%     80.78% # Class of committed instruction (Count)
system.cpu.commit.committedInstType_0::SimdReduceAdd            0      0.00%     80.78% # Class of committed instruction (Count)
system.cpu.commit.committedInstType_0::SimdReduceAlu            0      0.00%     80.78% # Class of committed instruction (Count)
system.cpu.commit.committedInstType_0::SimdReduceCmp            0      0.00%     80.78% # Class of committed instruction (Count)
system.cpu.commit.committedInstType_0::SimdFloatReduceAdd            0      0.00%     80.78% # Class of committed instruction (Count)
system.cpu.commit.committedInstType_0::SimdFloatReduceCmp            0      0.00%     80.78% # Class of committed instruction (Count)
system.cpu.commit.committedInstType_0::SimdAes            0      0.00%     80.78% # Class of committed instruction (Count)
system.cpu.commit.committedInstType_0::SimdAesMix            0      0.00%     80.78% # Class of committed instruction (Count)
system.cpu.commit.committedInstType_0::SimdSha1Hash            0      0.00%     80.78% # Class of committed instruction (Count)
system.cpu.commit.committedInstType_0::SimdSha1Hash2            0      0.00%     80.78% # Class of committed instruction (Count)
system.cpu.commit.committedInstType_0::SimdSha256Hash            0      0.00%     80.78% # Class of committed instruction (Count)
system.cpu.commit.committedInstType_0::SimdSha256Hash2            0      0.00%     80.78% # Class of committed instruction (Count)
system.cpu.commit.committedInstType_0::SimdShaSigma2            0      0.00%     80.78% # Class of committed instruction (Count)
system.cpu.commit.committedInstType_0::SimdShaSigma3            0      0.00%     80.78% # Class of committed instruction (Count)
system.cpu.commit.committedInstType_0::SimdPredAlu            0      0.00%     80.78% # Class of committed instruction (Count)
system.cpu.commit.committedInstType_0::Matrix            0      0.00%     80.78% # Class of committed instruction (Count)
system.cpu.commit.committedInstType_0::MatrixMov            0      0.00%     80.78% # Class of committed instruction (Count)
system.cpu.commit.committedInstType_0::MatrixOP            0      0.00%     80.78% # Class of committed instruction (Count)
system.cpu.commit.committedInstType_0::MemRead      1160127     10.98%     91.76% # Class of committed instruction (Count)
system.cpu.commit.committedInstType_0::MemWrite       868757      8.22%     99.98% # Class of committed instruction (Count)
system.cpu.commit.committedInstType_0::FloatMemRead         1069      0.01%     99.99% # Class of committed instruction (Count)
system.cpu.commit.committedInstType_0::FloatMemWrite         1119      0.01%    100.00% # Class of committed instruction (Count)
system.cpu.commit.committedInstType_0::IprAccess            0      0.00%    100.00% # Class of committed instruction (Count)
system.cpu.commit.committedInstType_0::InstPrefetch            0      0.00%    100.00% # Class of committed instruction (Count)
system.cpu.commit.committedInstType_0::VectorUnitStrideLoad            0      0.00%    100.00% # Class of committed instruction (Count)
system.cpu.commit.committedInstType_0::VectorUnitStrideStore            0      0.00%    100.00% # Class of committed instruction (Count)
system.cpu.commit.committedInstType_0::VectorUnitStrideMaskLoad            0      0.00%    100.00% # Class of committed instruction (Count)
system.cpu.commit.committedInstType_0::VectorUnitStrideMaskStore            0      0.00%    100.00% # Class of committed instruction (Count)
system.cpu.commit.committedInstType_0::VectorStridedLoad            0      0.00%    100.00% # Class of committed instruction (Count)
system.cpu.commit.committedInstType_0::VectorStridedStore            0      0.00%    100.00% # Class of committed instruction (Count)
system.cpu.commit.committedInstType_0::VectorIndexedLoad            0      0.00%    100.00% # Class of committed instruction (Count)
system.cpu.commit.committedInstType_0::VectorIndexedStore            0      0.00%    100.00% # Class of committed instruction (Count)
system.cpu.commit.committedInstType_0::VectorUnitStrideFaultOnlyFirstLoad            0      0.00%    100.00% # Class of committed instruction (Count)
system.cpu.commit.committedInstType_0::VectorWholeRegisterLoad            0      0.00%    100.00% # Class of committed instruction (Count)
system.cpu.commit.committedInstType_0::VectorWholeRegisterStore            0      0.00%    100.00% # Class of committed instruction (Count)
system.cpu.commit.committedInstType_0::VectorIntegerArith            0      0.00%    100.00% # Class of committed instruction (Count)
system.cpu.commit.committedInstType_0::VectorFloatArith            0      0.00%    100.00% # Class of committed instruction (Count)
system.cpu.commit.committedInstType_0::VectorFloatConvert            0      0.00%    100.00% # Class of committed instruction (Count)
system.cpu.commit.committedInstType_0::VectorIntegerReduce            0      0.00%    100.00% # Class of committed instruction (Count)
system.cpu.commit.committedInstType_0::VectorFloatReduce            0      0.00%    100.00% # Class of committed instruction (Count)
system.cpu.commit.committedInstType_0::VectorMisc            0      0.00%    100.00% # Class of committed instruction (Count)
system.cpu.commit.committedInstType_0::VectorIntegerExtension            0      0.00%    100.00% # Class of committed instruction (Count)
system.cpu.commit.committedInstType_0::VectorConfig            0      0.00%    100.00% # Class of committed instruction (Count)
system.cpu.commit.committedInstType_0::total     10569105                       # Class of committed instruction (Count)
system.cpu.commit.commitEligibleSamples       4586816                       # number cycles where commit BW limit reached (Cycle)
system.cpu.commitStats0.numInsts              5000000                       # Number of instructions committed (thread level) (Count)
system.cpu.commitStats0.numOps               10569105                       # Number of ops (including micro ops) committed (thread level) (Count)
system.cpu.commitStats0.numInstsNotNOP        5000000                       # Number of instructions committed excluding NOPs or prefetches (Count)
system.cpu.commitStats0.numOpsNotNOP         10569105                       # Number of Ops (including micro ops) Simulated (Count)
system.cpu.commitStats0.cpi                  3.195779                       # CPI: cycles per instruction (thread level) ((Cycle/Count))
system.cpu.commitStats0.ipc                  0.312913                       # IPC: instructions per cycle (thread level) ((Count/Cycle))
system.cpu.commitStats0.numMemRefs            2031072                       # Number of memory references committed (Count)
system.cpu.commitStats0.numFpInsts               6503                       # Number of float instructions (Count)
system.cpu.commitStats0.numIntInsts           9932636                       # Number of integer instructions (Count)
system.cpu.commitStats0.numLoadInsts          1161196                       # Number of load instructions (Count)
system.cpu.commitStats0.numStoreInsts          869876                       # Number of store instructions (Count)
system.cpu.commitStats0.numVecInsts                 0                       # Number of vector instructions (Count)
system.cpu.commitStats0.committedInstType::No_OpClass       217283      2.06%      2.06% # Class of committed instruction. (Count)
system.cpu.commitStats0.committedInstType::IntAlu      7058007     66.78%     68.84% # Class of committed instruction. (Count)
system.cpu.commitStats0.committedInstType::IntMult          844      0.01%     68.84% # Class of committed instruction. (Count)
system.cpu.commitStats0.committedInstType::IntDiv      1257938     11.90%     80.75% # Class of committed instruction. (Count)
system.cpu.commitStats0.committedInstType::FloatAdd          405      0.00%     80.75% # Class of committed instruction. (Count)
system.cpu.commitStats0.committedInstType::FloatCmp            0      0.00%     80.75% # Class of committed instruction. (Count)
system.cpu.commitStats0.committedInstType::FloatCvt            0      0.00%     80.75% # Class of committed instruction. (Count)
system.cpu.commitStats0.committedInstType::FloatMult            0      0.00%     80.75% # Class of committed instruction. (Count)
system.cpu.commitStats0.committedInstType::FloatMultAcc            0      0.00%     80.75% # Class of committed instruction. (Count)
system.cpu.commitStats0.committedInstType::FloatDiv            0      0.00%     80.75% # Class of committed instruction. (Count)
system.cpu.commitStats0.committedInstType::FloatMisc            0      0.00%     80.75% # Class of committed instruction. (Count)
system.cpu.commitStats0.committedInstType::FloatSqrt            0      0.00%     80.75% # Class of committed instruction. (Count)
system.cpu.commitStats0.committedInstType::SimdAdd          432      0.00%     80.75% # Class of committed instruction. (Count)
system.cpu.commitStats0.committedInstType::SimdAddAcc            0      0.00%     80.75% # Class of committed instruction. (Count)
system.cpu.commitStats0.committedInstType::SimdAlu          928      0.01%     80.76% # Class of committed instruction. (Count)
system.cpu.commitStats0.committedInstType::SimdCmp            2      0.00%     80.76% # Class of committed instruction. (Count)
system.cpu.commitStats0.committedInstType::SimdCvt          976      0.01%     80.77% # Class of committed instruction. (Count)
system.cpu.commitStats0.committedInstType::SimdMisc          998      0.01%     80.78% # Class of committed instruction. (Count)
system.cpu.commitStats0.committedInstType::SimdMult            0      0.00%     80.78% # Class of committed instruction. (Count)
system.cpu.commitStats0.committedInstType::SimdMultAcc            0      0.00%     80.78% # Class of committed instruction. (Count)
system.cpu.commitStats0.committedInstType::SimdMatMultAcc            0      0.00%     80.78% # Class of committed instruction. (Count)
system.cpu.commitStats0.committedInstType::SimdShift          220      0.00%     80.78% # Class of committed instruction. (Count)
system.cpu.commitStats0.committedInstType::SimdShiftAcc            0      0.00%     80.78% # Class of committed instruction. (Count)
system.cpu.commitStats0.committedInstType::SimdDiv            0      0.00%     80.78% # Class of committed instruction. (Count)
system.cpu.commitStats0.committedInstType::SimdSqrt            0      0.00%     80.78% # Class of committed instruction. (Count)
system.cpu.commitStats0.committedInstType::SimdFloatAdd            0      0.00%     80.78% # Class of committed instruction. (Count)
system.cpu.commitStats0.committedInstType::SimdFloatAlu            0      0.00%     80.78% # Class of committed instruction. (Count)
system.cpu.commitStats0.committedInstType::SimdFloatCmp            0      0.00%     80.78% # Class of committed instruction. (Count)
system.cpu.commitStats0.committedInstType::SimdFloatCvt            0      0.00%     80.78% # Class of committed instruction. (Count)
system.cpu.commitStats0.committedInstType::SimdFloatDiv            0      0.00%     80.78% # Class of committed instruction. (Count)
system.cpu.commitStats0.committedInstType::SimdFloatMisc            0      0.00%     80.78% # Class of committed instruction. (Count)
system.cpu.commitStats0.committedInstType::SimdFloatMult            0      0.00%     80.78% # Class of committed instruction. (Count)
system.cpu.commitStats0.committedInstType::SimdFloatMultAcc            0      0.00%     80.78% # Class of committed instruction. (Count)
system.cpu.commitStats0.committedInstType::SimdFloatMatMultAcc            0      0.00%     80.78% # Class of committed instruction. (Count)
system.cpu.commitStats0.committedInstType::SimdFloatSqrt            0      0.00%     80.78% # Class of committed instruction. (Count)
system.cpu.commitStats0.committedInstType::SimdReduceAdd            0      0.00%     80.78% # Class of committed instruction. (Count)
system.cpu.commitStats0.committedInstType::SimdReduceAlu            0      0.00%     80.78% # Class of committed instruction. (Count)
system.cpu.commitStats0.committedInstType::SimdReduceCmp            0      0.00%     80.78% # Class of committed instruction. (Count)
system.cpu.commitStats0.committedInstType::SimdFloatReduceAdd            0      0.00%     80.78% # Class of committed instruction. (Count)
system.cpu.commitStats0.committedInstType::SimdFloatReduceCmp            0      0.00%     80.78% # Class of committed instruction. (Count)
system.cpu.commitStats0.committedInstType::SimdAes            0      0.00%     80.78% # Class of committed instruction. (Count)
system.cpu.commitStats0.committedInstType::SimdAesMix            0      0.00%     80.78% # Class of committed instruction. (Count)
system.cpu.commitStats0.committedInstType::SimdSha1Hash            0      0.00%     80.78% # Class of committed instruction. (Count)
system.cpu.commitStats0.committedInstType::SimdSha1Hash2            0      0.00%     80.78% # Class of committed instruction. (Count)
system.cpu.commitStats0.committedInstType::SimdSha256Hash            0      0.00%     80.78% # Class of committed instruction. (Count)
system.cpu.commitStats0.committedInstType::SimdSha256Hash2            0      0.00%     80.78% # Class of committed instruction. (Count)
system.cpu.commitStats0.committedInstType::SimdShaSigma2            0      0.00%     80.78% # Class of committed instruction. (Count)
system.cpu.commitStats0.committedInstType::SimdShaSigma3            0      0.00%     80.78% # Class of committed instruction. (Count)
system.cpu.commitStats0.committedInstType::SimdPredAlu            0      0.00%     80.78% # Class of committed instruction. (Count)
system.cpu.commitStats0.committedInstType::Matrix            0      0.00%     80.78% # Class of committed instruction. (Count)
system.cpu.commitStats0.committedInstType::MatrixMov            0      0.00%     80.78% # Class of committed instruction. (Count)
system.cpu.commitStats0.committedInstType::MatrixOP            0      0.00%     80.78% # Class of committed instruction. (Count)
system.cpu.commitStats0.committedInstType::MemRead      1160127     10.98%     91.76% # Class of committed instruction. (Count)
system.cpu.commitStats0.committedInstType::MemWrite       868757      8.22%     99.98% # Class of committed instruction. (Count)
system.cpu.commitStats0.committedInstType::FloatMemRead         1069      0.01%     99.99% # Class of committed instruction. (Count)
system.cpu.commitStats0.committedInstType::FloatMemWrite         1119      0.01%    100.00% # Class of committed instruction. (Count)
system.cpu.commitStats0.committedInstType::IprAccess            0      0.00%    100.00% # Class of committed instruction. (Count)
system.cpu.commitStats0.committedInstType::InstPrefetch            0      0.00%    100.00% # Class of committed instruction. (Count)
system.cpu.commitStats0.committedInstType::VectorUnitStrideLoad            0      0.00%    100.00% # Class of committed instruction. (Count)
system.cpu.commitStats0.committedInstType::VectorUnitStrideStore            0      0.00%    100.00% # Class of committed instruction. (Count)
system.cpu.commitStats0.committedInstType::VectorUnitStrideMaskLoad            0      0.00%    100.00% # Class of committed instruction. (Count)
system.cpu.commitStats0.committedInstType::VectorUnitStrideMaskStore            0      0.00%    100.00% # Class of committed instruction. (Count)
system.cpu.commitStats0.committedInstType::VectorStridedLoad            0      0.00%    100.00% # Class of committed instruction. (Count)
system.cpu.commitStats0.committedInstType::VectorStridedStore            0      0.00%    100.00% # Class of committed instruction. (Count)
system.cpu.commitStats0.committedInstType::VectorIndexedLoad            0      0.00%    100.00% # Class of committed instruction. (Count)
system.cpu.commitStats0.committedInstType::VectorIndexedStore            0      0.00%    100.00% # Class of committed instruction. (Count)
system.cpu.commitStats0.committedInstType::VectorUnitStrideFaultOnlyFirstLoad            0      0.00%    100.00% # Class of committed instruction. (Count)
system.cpu.commitStats0.committedInstType::VectorWholeRegisterLoad            0      0.00%    100.00% # Class of committed instruction. (Count)
system.cpu.commitStats0.committedInstType::VectorWholeRegisterStore            0      0.00%    100.00% # Class of committed instruction. (Count)
system.cpu.commitStats0.committedInstType::VectorIntegerArith            0      0.00%    100.00% # Class of committed instruction. (Count)
system.cpu.commitStats0.committedInstType::VectorFloatArith            0      0.00%    100.00% # Class of committed instruction. (Count)
system.cpu.commitStats0.committedInstType::VectorFloatConvert            0      0.00%    100.00% # Class of committed instruction. (Count)
system.cpu.commitStats0.committedInstType::VectorIntegerReduce            0      0.00%    100.00% # Class of committed instruction. (Count)
system.cpu.commitStats0.committedInstType::VectorFloatReduce            0      0.00%    100.00% # Class of committed instruction. (Count)
system.cpu.commitStats0.committedInstType::VectorMisc            0      0.00%    100.00% # Class of committed instruction. (Count)
system.cpu.commitStats0.committedInstType::VectorIntegerExtension            0      0.00%    100.00% # Class of committed instruction. (Count)
system.cpu.commitStats0.committedInstType::VectorConfig            0      0.00%    100.00% # Class of committed instruction. (Count)
system.cpu.commitStats0.committedInstType::total     10569105                       # Class of committed instruction. (Count)
system.cpu.commitStats0.committedControl::IsControl      1183803                       # Class of control type instructions committed (Count)
system.cpu.commitStats0.committedControl::IsDirectControl       966627                       # Class of control type instructions committed (Count)
system.cpu.commitStats0.committedControl::IsIndirectControl       217136                       # Class of control type instructions committed (Count)
system.cpu.commitStats0.committedControl::IsCondControl       801427                       # Class of control type instructions committed (Count)
system.cpu.commitStats0.committedControl::IsUncondControl       382336                       # Class of control type instructions committed (Count)
system.cpu.commitStats0.committedControl::IsCall       162836                       # Class of control type instructions committed (Count)
system.cpu.commitStats0.committedControl::IsReturn       162831                       # Class of control type instructions committed (Count)
system.cpu.dcache.demandHits::cpu.data        1775497                       # number of demand (read+write) hits (Count)
system.cpu.dcache.demandHits::total           1775497                       # number of demand (read+write) hits (Count)
system.cpu.dcache.overallHits::cpu.data       1775497                       # number of overall hits (Count)
system.cpu.dcache.overallHits::total          1775497                       # number of overall hits (Count)
system.cpu.dcache.demandMisses::cpu.data       110346                       # number of demand (read+write) misses (Count)
system.cpu.dcache.demandMisses::total          110346                       # number of demand (read+write) misses (Count)
system.cpu.dcache.overallMisses::cpu.data       110346                       # number of overall misses (Count)
system.cpu.dcache.overallMisses::total         110346                       # number of overall misses (Count)
system.cpu.dcache.demandMissLatency::cpu.data   7203635000                       # number of demand (read+write) miss ticks (Tick)
system.cpu.dcache.demandMissLatency::total   7203635000                       # number of demand (read+write) miss ticks (Tick)
system.cpu.dcache.overallMissLatency::cpu.data   7203635000                       # number of overall miss ticks (Tick)
system.cpu.dcache.overallMissLatency::total   7203635000                       # number of overall miss ticks (Tick)
system.cpu.dcache.demandAccesses::cpu.data      1885843                       # number of demand (read+write) accesses (Count)
system.cpu.dcache.demandAccesses::total       1885843                       # number of demand (read+write) accesses (Count)
system.cpu.dcache.overallAccesses::cpu.data      1885843                       # number of overall (read+write) accesses (Count)
system.cpu.dcache.overallAccesses::total      1885843                       # number of overall (read+write) accesses (Count)
system.cpu.dcache.demandMissRate::cpu.data     0.058513                       # miss rate for demand accesses (Ratio)
system.cpu.dcache.demandMissRate::total      0.058513                       # miss rate for demand accesses (Ratio)
system.cpu.dcache.overallMissRate::cpu.data     0.058513                       # miss rate for overall accesses (Ratio)
system.cpu.dcache.overallMissRate::total     0.058513                       # miss rate for overall accesses (Ratio)
system.cpu.dcache.demandAvgMissLatency::cpu.data 65282.248564                       # average overall miss latency in ticks ((Tick/Count))
system.cpu.dcache.demandAvgMissLatency::total 65282.248564                       # average overall miss latency in ticks ((Tick/Count))
system.cpu.dcache.overallAvgMissLatency::cpu.data 65282.248564                       # average overall miss latency ((Tick/Count))
system.cpu.dcache.overallAvgMissLatency::total 65282.248564                       # average overall miss latency ((Tick/Count))
system.cpu.dcache.blockedCycles::no_mshrs         2020                       # number of cycles access was blocked (Cycle)
system.cpu.dcache.blockedCycles::no_targets            0                       # number of cycles access was blocked (Cycle)
system.cpu.dcache.blockedCauses::no_mshrs           43                       # number of times access was blocked (Count)
system.cpu.dcache.blockedCauses::no_targets            0                       # number of times access was blocked (Count)
system.cpu.dcache.avgBlocked::no_mshrs      46.976744                       # average number of cycles each access was blocked ((Cycle/Count))
system.cpu.dcache.avgBlocked::no_targets          nan                       # average number of cycles each access was blocked ((Cycle/Count))
system.cpu.dcache.writebacks::writebacks       136773                       # number of writebacks (Count)
system.cpu.dcache.writebacks::total            136773                       # number of writebacks (Count)
[...]
system.mem_ctrl.dram.bwRead::cpu.inst         1177553                       # Total read bandwidth from this memory ((Byte/Second))
system.mem_ctrl.dram.bwRead::cpu.data       258168524                       # Total read bandwidth from this memory ((Byte/Second))
system.mem_ctrl.dram.bwRead::cpu.dcache.prefetcher    160587815                       # Total read bandwidth from this memory ((Byte/Second))
system.mem_ctrl.dram.bwRead::cpu.icache.prefetcher      2751629                       # Total read bandwidth from this memory ((Byte/Second))
system.mem_ctrl.dram.bwRead::l2cache.prefetcher    681030279                       # Total read bandwidth from this memory ((Byte/Second))
system.mem_ctrl.dram.bwRead::total         1103715801                       # Total read bandwidth from this memory ((Byte/Second))
system.mem_ctrl.dram.bwInstRead::cpu.inst      1177553                       # Instruction read bandwidth from this memory ((Byte/Second))
system.mem_ctrl.dram.bwInstRead::total        1177553                       # Instruction read bandwidth from this memory ((Byte/Second))
system.mem_ctrl.dram.bwWrite::writebacks    490615121                       # Write bandwidth from this memory ((Byte/Second))
system.mem_ctrl.dram.bwWrite::total         490615121                       # Write bandwidth from this memory ((Byte/Second))
system.mem_ctrl.dram.bwTotal::writebacks    490615121                       # Total bandwidth to/from this memory ((Byte/Second))
system.mem_ctrl.dram.bwTotal::cpu.inst        1177553                       # Total bandwidth to/from this memory ((Byte/Second))
system.mem_ctrl.dram.bwTotal::cpu.data      258168524                       # Total bandwidth to/from this memory ((Byte/Second))
system.mem_ctrl.dram.bwTotal::cpu.dcache.prefetcher    160587815                       # Total bandwidth to/from this memory ((Byte/Second))
system.mem_ctrl.dram.bwTotal::cpu.icache.prefetcher      2751629                       # Total bandwidth to/from this memory ((Byte/Second))
system.mem_ctrl.dram.bwTotal::l2cache.prefetcher    681030279                       # Total bandwidth to/from this memory ((Byte/Second))
system.mem_ctrl.dram.bwTotal::total        1594330922                       # Total bandwidth to/from this memory ((Byte/Second))
system.mem_ctrl.dram.readBursts                275403                       # Number of DRAM read bursts (Count)
system.mem_ctrl.dram.writeBursts               122477                       # Number of DRAM write bursts (Count)
system.mem_ctrl.dram.perBankRdBursts::0         17007                       # Per bank write bursts (Count)
system.mem_ctrl.dram.perBankRdBursts::1         17622                       # Per bank write bursts (Count)
system.mem_ctrl.dram.perBankRdBursts::2         17412                       # Per bank write bursts (Count)
system.mem_ctrl.dram.perBankRdBursts::3         17612                       # Per bank write bursts (Count)
system.mem_ctrl.dram.perBankRdBursts::4         17259                       # Per bank write bursts (Count)
system.mem_ctrl.dram.perBankRdBursts::5         17557                       # Per bank write bursts (Count)
system.mem_ctrl.dram.perBankRdBursts::6         17306                       # Per bank write bursts (Count)
system.mem_ctrl.dram.perBankRdBursts::7         17396                       # Per bank write bursts (Count)
system.mem_ctrl.dram.perBankRdBursts::8         17131                       # Per bank write bursts (Count)
system.mem_ctrl.dram.perBankRdBursts::9         17215                       # Per bank write bursts (Count)
system.mem_ctrl.dram.perBankRdBursts::10        17149                       # Per bank write bursts (Count)
system.mem_ctrl.dram.perBankRdBursts::11        17148                       # Per bank write bursts (Count)
system.mem_ctrl.dram.perBankRdBursts::12        17120                       # Per bank write bursts (Count)
system.mem_ctrl.dram.perBankRdBursts::13        17019                       # Per bank write bursts (Count)
system.mem_ctrl.dram.perBankRdBursts::14        16792                       # Per bank write bursts (Count)
system.mem_ctrl.dram.perBankRdBursts::15        16658                       # Per bank write bursts (Count)
system.mem_ctrl.dram.perBankWrBursts::0          7642                       # Per bank write bursts (Count)
system.mem_ctrl.dram.perBankWrBursts::1          7855                       # Per bank write bursts (Count)
system.mem_ctrl.dram.perBankWrBursts::2          7731                       # Per bank write bursts (Count)
system.mem_ctrl.dram.perBankWrBursts::3          7752                       # Per bank write bursts (Count)
system.mem_ctrl.dram.perBankWrBursts::4          7715                       # Per bank write bursts (Count)
system.mem_ctrl.dram.perBankWrBursts::5          7809                       # Per bank write bursts (Count)
system.mem_ctrl.dram.perBankWrBursts::6          7703                       # Per bank write bursts (Count)
system.mem_ctrl.dram.perBankWrBursts::7          7592                       # Per bank write bursts (Count)
system.mem_ctrl.dram.perBankWrBursts::8          7557                       # Per bank write bursts (Count)
system.mem_ctrl.dram.perBankWrBursts::9          7615                       # Per bank write bursts (Count)
system.mem_ctrl.dram.perBankWrBursts::10         7584                       # Per bank write bursts (Count)
system.mem_ctrl.dram.perBankWrBursts::11         7722                       # Per bank write bursts (Count)
system.mem_ctrl.dram.perBankWrBursts::12         7596                       # Per bank write bursts (Count)
system.mem_ctrl.dram.perBankWrBursts::13         7575                       # Per bank write bursts (Count)
system.mem_ctrl.dram.perBankWrBursts::14         7512                       # Per bank write bursts (Count)
system.mem_ctrl.dram.perBankWrBursts::15         7517                       # Per bank write bursts (Count)
system.mem_ctrl.dram.totQLat               4029754969                       # Total ticks spent queuing (Tick)
system.mem_ctrl.dram.totBusLat             1377015000                       # Total ticks spent in databus transfers (Tick)
system.mem_ctrl.dram.totMemAccLat          9193561219                       # Total ticks spent from burst creation until serviced by the DRAM (Tick)
system.mem_ctrl.dram.avgQLat                 14632.21                       # Average queueing delay per DRAM burst ((Tick/Count))
system.mem_ctrl.dram.avgBusLat                5000.00                       # Average bus latency per DRAM burst ((Tick/Count))
system.mem_ctrl.dram.avgMemAccLat            33382.21                       # Average memory access latency per DRAM burst ((Tick/Count))
system.mem_ctrl.dram.readRowHits               215338                       # Number of row buffer hits during reads (Count)
system.mem_ctrl.dram.writeRowHits               66788                       # Number of row buffer hits during writes (Count)
system.mem_ctrl.dram.readRowHitRate             78.19                       # Row buffer hit rate for reads (Ratio)
system.mem_ctrl.dram.writeRowHitRate            54.53                       # Row buffer hit rate for writes (Ratio)
system.mem_ctrl.dram.bytesPerActivate::samples       115748                       # Bytes accessed per row activation (Byte)
system.mem_ctrl.dram.bytesPerActivate::mean   219.990186                       # Bytes accessed per row activation (Byte)
system.mem_ctrl.dram.bytesPerActivate::gmean   154.602521                       # Bytes accessed per row activation (Byte)
system.mem_ctrl.dram.bytesPerActivate::stdev   214.114922                       # Bytes accessed per row activation (Byte)
system.mem_ctrl.dram.bytesPerActivate::0-127        44825     38.73%     38.73% # Bytes accessed per row activation (Byte)
system.mem_ctrl.dram.bytesPerActivate::128-255        23817     20.58%     59.30% # Bytes accessed per row activation (Byte)
system.mem_ctrl.dram.bytesPerActivate::256-383        37967     32.80%     92.10% # Bytes accessed per row activation (Byte)
system.mem_ctrl.dram.bytesPerActivate::384-511         2301      1.99%     94.09% # Bytes accessed per row activation (Byte)
system.mem_ctrl.dram.bytesPerActivate::512-639          592      0.51%     94.60% # Bytes accessed per row activation (Byte)
system.mem_ctrl.dram.bytesPerActivate::640-767          442      0.38%     94.99% # Bytes accessed per row activation (Byte)
system.mem_ctrl.dram.bytesPerActivate::768-895          402      0.35%     95.33% # Bytes accessed per row activation (Byte)
system.mem_ctrl.dram.bytesPerActivate::896-1023          372      0.32%     95.65% # Bytes accessed per row activation (Byte)
system.mem_ctrl.dram.bytesPerActivate::1024-1151         5030      4.35%    100.00% # Bytes accessed per row activation (Byte)
system.mem_ctrl.dram.bytesPerActivate::total       115748                       # Bytes accessed per row activation (Byte)
system.mem_ctrl.dram.dramBytesRead           17625792                       # Total bytes read (Byte)
system.mem_ctrl.dram.dramBytesWritten         7838528                       # Total bytes written (Byte)
system.mem_ctrl.dram.avgRdBW              1103.066945                       # Average DRAM read bandwidth in MiBytes/s ((Byte/Second))
system.mem_ctrl.dram.avgWrBW               490.555042                       # Average DRAM write bandwidth in MiBytes/s ((Byte/Second))
system.mem_ctrl.dram.peakBW                  12800.00                       # Theoretical peak bandwidth in MiByte/s ((Byte/Second))
system.mem_ctrl.dram.busUtil                    12.45                       # Data bus utilization in percentage (Ratio)
system.mem_ctrl.dram.busUtilRead                 8.62                       # Data bus utilization in percentage for reads (Ratio)
system.mem_ctrl.dram.busUtilWrite                3.83                       # Data bus utilization in percentage for writes (Ratio)
system.mem_ctrl.dram.pageHitRate                70.91                       # Row buffer hit rate, read and write combined (Ratio)
system.mem_ctrl.dram.power_state.pwrStateResidencyTicks::UNDEFINED  15978896000                       # Cumulative time (in ticks) in various power states (Tick)
system.mem_ctrl.dram.rank0.actEnergy        417432960                       # Energy for activate commands per rank (pJ) (Joule)
system.mem_ctrl.dram.rank0.preEnergy        221851905                       # Energy for precharge commands per rank (pJ) (Joule)
system.mem_ctrl.dram.rank0.readEnergy       993680940                       # Energy for read commands per rank (pJ) (Joule)
system.mem_ctrl.dram.rank0.writeEnergy      322575120                       # Energy for write commands per rank (pJ) (Joule)
system.mem_ctrl.dram.rank0.refreshEnergy 1261241280.000000                       # Energy for refresh commands per rank (pJ) (Joule)
system.mem_ctrl.dram.rank0.actBackEnergy   6783568290                       # Energy for active background per rank (pJ) (Joule)
system.mem_ctrl.dram.rank0.preBackEnergy    423417600                       # Energy for precharge background per rank (pJ) (Joule)
system.mem_ctrl.dram.rank0.actPowerDownEnergy            0                       # Energy for active power-down per rank (pJ) (Joule)
system.mem_ctrl.dram.rank0.prePowerDownEnergy            0                       # Energy for precharge power-down per rank (pJ) (Joule)
system.mem_ctrl.dram.rank0.selfRefreshEnergy            0                       # Energy for self refresh per rank (pJ) (Joule)
system.mem_ctrl.dram.rank0.totalEnergy    10423768095                       # Total energy per rank (pJ) (Joule)
system.mem_ctrl.dram.rank0.averagePower    652.345950                       # Core power per rank (mW) (Watt)
system.mem_ctrl.dram.rank0.totalIdleTime            0                       # Total Idle time Per DRAM Rank (Tick)
system.mem_ctrl.dram.rank0.pwrStateTime::IDLE   1028693861                       # Time in different power states (Tick)
system.mem_ctrl.dram.rank0.pwrStateTime::REF    533520000                       # Time in different power states (Tick)
system.mem_ctrl.dram.rank0.pwrStateTime::SREF            0                       # Time in different power states (Tick)
system.mem_ctrl.dram.rank0.pwrStateTime::PRE_PDN            0                       # Time in different power states (Tick)
system.mem_ctrl.dram.rank0.pwrStateTime::ACT  14416682139                       # Time in different power states (Tick)
system.mem_ctrl.dram.rank0.pwrStateTime::ACT_PDN            0                       # Time in different power states (Tick)
system.mem_ctrl.dram.rank1.actEnergy        409050600                       # Energy for activate commands per rank (pJ) (Joule)
system.mem_ctrl.dram.rank1.preEnergy        217400370                       # Energy for precharge commands per rank (pJ) (Joule)
system.mem_ctrl.dram.rank1.readEnergy       972696480                       # Energy for read commands per rank (pJ) (Joule)
system.mem_ctrl.dram.rank1.writeEnergy      316739160                       # Energy for write commands per rank (pJ) (Joule)
system.mem_ctrl.dram.rank1.refreshEnergy 1261241280.000000                       # Energy for refresh commands per rank (pJ) (Joule)
system.mem_ctrl.dram.rank1.actBackEnergy   6781654800                       # Energy for active background per rank (pJ) (Joule)
system.mem_ctrl.dram.rank1.preBackEnergy    425028960                       # Energy for precharge background per rank (pJ) (Joule)
system.mem_ctrl.dram.rank1.actPowerDownEnergy            0                       # Energy for active power-down per rank (pJ) (Joule)
system.mem_ctrl.dram.rank1.prePowerDownEnergy            0                       # Energy for precharge power-down per rank (pJ) (Joule)
system.mem_ctrl.dram.rank1.selfRefreshEnergy            0                       # Energy for self refresh per rank (pJ) (Joule)
system.mem_ctrl.dram.rank1.totalEnergy    10383811650                       # Total energy per rank (pJ) (Joule)
system.mem_ctrl.dram.rank1.averagePower    649.845374                       # Core power per rank (mW) (Watt)
system.mem_ctrl.dram.rank1.totalIdleTime            0                       # Total Idle time Per DRAM Rank (Tick)
system.mem_ctrl.dram.rank1.pwrStateTime::IDLE   1034197840                       # Time in different power states (Tick)
system.mem_ctrl.dram.rank1.pwrStateTime::REF    533520000                       # Time in different power states (Tick)
system.mem_ctrl.dram.rank1.pwrStateTime::SREF            0                       # Time in different power states (Tick)
system.mem_ctrl.dram.rank1.pwrStateTime::PRE_PDN            0                       # Time in different power states (Tick)
system.mem_ctrl.dram.rank1.pwrStateTime::ACT  14411178160                       # Time in different power states (Tick)
system.mem_ctrl.dram.rank1.pwrStateTime::ACT_PDN            0                       # Time in different power states (Tick)
system.mem_ctrl.power_state.pwrStateResidencyTicks::UNDEFINED  15978896000                       # Cumulative time (in ticks) in various power states (Tick)
system.membus.transDist::ReadResp              274691                       # Transaction distribution (Count)
system.membus.transDist::WritebackDirty        122492                       # Transaction distribution (Count)
system.membus.transDist::CleanEvict            144358                       # Transaction distribution (Count)
system.membus.transDist::ReadExReq                874                       # Transaction distribution (Count)
system.membus.transDist::ReadExResp               874                       # Transaction distribution (Count)
system.membus.transDist::ReadSharedReq         274691                       # Transaction distribution (Count)
system.membus.pktCount_system.l2cache.mem_side_port::system.mem_ctrl.port       817980                       # Packet count per connected requestor and responder (Count)
system.membus.pktCount_system.l2cache.mem_side_port::total       817980                       # Packet count per connected requestor and responder (Count)
system.membus.pktCount::total                  817980                       # Packet count per connected requestor and responder (Count)
system.membus.pktSize_system.l2cache.mem_side_port::system.mem_ctrl.port     25475648                       # Cumulative packet size per connected requestor and responder (Byte)
system.membus.pktSize_system.l2cache.mem_side_port::total     25475648                       # Cumulative packet size per connected requestor and responder (Byte)
system.membus.pktSize::total                 25475648                       # Cumulative packet size per connected requestor and responder (Byte)
system.membus.snoops                                0                       # Total snoops (Count)
system.membus.snoopTraffic                          0                       # Total snoop traffic (Byte)
system.membus.snoopFanout::samples             275565                       # Request fanout histogram (Count)
system.membus.snoopFanout::mean                     0                       # Request fanout histogram (Count)
system.membus.snoopFanout::stdev                    0                       # Request fanout histogram (Count)
system.membus.snoopFanout::underflows               0      0.00%      0.00% # Request fanout histogram (Count)
system.membus.snoopFanout::0                   275565    100.00%    100.00% # Request fanout histogram (Count)
system.membus.snoopFanout::1                        0      0.00%    100.00% # Request fanout histogram (Count)
system.membus.snoopFanout::overflows                0      0.00%    100.00% # Request fanout histogram (Count)
system.membus.snoopFanout::min_value                0                       # Request fanout histogram (Count)
system.membus.snoopFanout::max_value                0                       # Request fanout histogram (Count)
system.membus.snoopFanout::total               275565                       # Request fanout histogram (Count)
system.membus.power_state.pwrStateResidencyTicks::UNDEFINED  15978896000                       # Cumulative time (in ticks) in various power states (Tick)
system.membus.reqLayer2.occupancy          1166035423                       # Layer occupancy (ticks) (Tick)
system.membus.reqLayer2.utilization               0.1                       # Layer utilization (Ratio)
system.membus.respLayer0.occupancy         1449844618                       # Layer occupancy (ticks) (Tick)
system.membus.respLayer0.utilization              0.1                       # Layer utilization (Ratio)
system.membus.snoop_filter.totRequests         542415                       # Total number of requests made to the snoop filter. (Count)
system.membus.snoop_filter.hitSingleRequests       266851                       # Number of requests hitting in the snoop filter with a single holder of the requested data. (Count)
system.membus.snoop_filter.hitMultiRequests            0                       # Number of requests hitting in the snoop filter with multiple (>1) holders of the requested data. (Count)
system.membus.snoop_filter.totSnoops                0                       # Total number of snoops made to the snoop filter. (Count)
system.membus.snoop_filter.hitSingleSnoops            0                       # Number of snoops hitting in the snoop filter with a single holder of the requested data. (Count)
system.membus.snoop_filter.hitMultiSnoops            0                       # Number of snoops hitting in the snoop filter with multiple (>1) holders of the requested data. (Count)
system.workload.inst.arm                            0                       # number of arm instructions executed (Count)
system.workload.inst.quiesce                        0                       # number of quiesce instructions executed (Count)

---------- End Simulation Statistics   ----------
