
---------- Begin Simulation Statistics ----------
simSeconds                                   0.002518                       # Number of seconds simulated (Second)
simTicks                                   2518425000                       # Number of ticks simulated (Tick)
finalTick                                  2518425000                       # Number of ticks from beginning of simulation (restored from checkpoints and never reset) (Tick)
simFreq                                  1000000000000                       # The number of ticks per simulated second ((Tick/Second))
hostSeconds                                     10.42                       # Real time elapsed on the host (Second)
hostTickRate                                241734493                       # The number of ticks simulated per host second (ticks/s) ((Tick/Second))
hostMemory                                     717440                       # Number of bytes of host memory used (Byte)
simInsts                                      1390852                       # Number of instructions simulated (Count)
simOps                                        2573877                       # Number of ops (including micro ops) simulated (Count)
hostInstRate                                   133500                       # Simulator instruction rate (inst/s) ((Count/Second))
hostOpRate                                     247052                       # Simulator op (including micro ops) rate (op/s) ((Count/Second))
system.clk_domain.clock                          1000                       # Clock period in ticks (Tick)
system.clk_domain.voltage_domain.voltage            1                       # Voltage in Volts (Volt)
system.cpu.numCycles                          2518426                       # Number of cpu cycles simulated (Cycle)
system.cpu.cpi                               1.810707                       # CPI: cycles per instruction (core level) ((Cycle/Count))
system.cpu.ipc                               0.552270                       # IPC: instructions per cycle (core level) ((Count/Cycle))
system.cpu.numWorkItemsStarted                      0                       # Number of work items this cpu started (Count)
system.cpu.numWorkItemsCompleted                    0                       # Number of work items this cpu completed (Count)
system.cpu.instsAdded                         2641608                       # Number of instructions added to the IQ (excludes non-spec) (Count)
system.cpu.nonSpecInstsAdded                      130                       # Number of non-speculative instructions added to the IQ (Count)
system.cpu.instsIssued                        2632111                       # Number of instructions issued (Count)
system.cpu.squashedInstsIssued                   1383                       # Number of squashed instructions issued (Count)
system.cpu.squashedInstsExamined                67852                       # Number of squashed instructions iterated over during squash; mainly for profiling (Count)
system.cpu.squashedOperandsExamined            102710                       # Number of squashed operands that are examined and possibly removed from graph (Count)
system.cpu.squashedNonSpecRemoved                  40                       # Number of squashed non-spec instructions that were removed (Count)
system.cpu.numIssuedDist::samples             2498331                       # Number of insts issued each cycle (Count)
system.cpu.numIssuedDist::mean               1.053548                       # Number of insts issued each cycle (Count)
system.cpu.numIssuedDist::stdev              0.921292                       # Number of insts issued each cycle (Count)
system.cpu.numIssuedDist::underflows                0      0.00%      0.00% # Number of insts issued each cycle (Count)
system.cpu.numIssuedDist::0                    996956     39.90%     39.90% # Number of insts issued each cycle (Count)
system.cpu.numIssuedDist::1                    370639     14.84%     54.74% # Number of insts issued each cycle (Count)
system.cpu.numIssuedDist::2                   1130736     45.26%    100.00% # Number of insts issued each cycle (Count)
system.cpu.numIssuedDist::overflows                 0      0.00%    100.00% # Number of insts issued each cycle (Count)
system.cpu.numIssuedDist::min_value                 0                       # Number of insts issued each cycle (Count)
system.cpu.numIssuedDist::max_value                 2                       # Number of insts issued each cycle (Count)
system.cpu.numIssuedDist::total               2498331                       # Number of insts issued each cycle (Count)
system.cpu.statFuBusy::No_OpClass                   0                       # attempts to use FU when none available (Count)
system.cpu.statFuBusy::IntAlu                       0                       # attempts to use FU when none available (Count)
system.cpu.statFuBusy::IntMult                      0                       # attempts to use FU when none available (Count)
system.cpu.statFuBusy::IntDiv                       0                       # attempts to use FU when none available (Count)
system.cpu.statFuBusy::FloatAdd                     0                       # attempts to use FU when none available (Count)
system.cpu.statFuBusy::FloatCmp                     0                       # attempts to use FU when none available (Count)
system.cpu.statFuBusy::FloatCvt                     0                       # attempts to use FU when none available (Count)
system.cpu.statFuBusy::FloatMult                    0                       # attempts to use FU when none available (Count)
system.cpu.statFuBusy::FloatMultAcc                 0                       # attempts to use FU when none available (Count)
system.cpu.statFuBusy::FloatDiv                     0                       # attempts to use FU when none available (Count)
system.cpu.statFuBusy::FloatMisc                    0                       # attempts to use FU when none available (Count)
system.cpu.statFuBusy::FloatSqrt                    0                       # attempts to use FU when none available (Count)
system.cpu.statFuBusy::SimdAdd                      0                       # attempts to use FU when none available (Count)
system.cpu.statFuBusy::SimdAddAcc                   0                       # attempts to use FU when none available (Count)
system.cpu.statFuBusy::SimdAlu                      0                       # attempts to use FU when none available (Count)
system.cpu.statFuBusy::SimdCmp                      0                       # attempts to use FU when none available (Count)
system.cpu.statFuBusy::SimdCvt                      0                       # attempts to use FU when none available (Count)
system.cpu.statFuBusy::SimdMisc                     0                       # attempts to use FU when none available (Count)
system.cpu.statFuBusy::SimdMult                     0                       # attempts to use FU when none available (Count)
system.cpu.statFuBusy::SimdMultAcc                  0                       # attempts to use FU when none available (Count)
system.cpu.statFuBusy::SimdMatMultAcc               0                       # attempts to use FU when none available (Count)
system.cpu.statFuBusy::SimdShift                    0                       # attempts to use FU when none available (Count)
system.cpu.statFuBusy::SimdShiftAcc                 0                       # attempts to use FU when none available (Count)
system.cpu.statFuBusy::SimdDiv                      0                       # attempts to use FU when none available (Count)
system.cpu.statFuBusy::SimdSqrt                     0                       # attempts to use FU when none available (Count)
system.cpu.statFuBusy::SimdFloatAdd                 0                       # attempts to use FU when none available (Count)
system.cpu.statFuBusy::SimdFloatAlu                 0                       # attempts to use FU when none available (Count)
system.cpu.statFuBusy::SimdFloatCmp                 0                       # attempts to use FU when none available (Count)
system.cpu.statFuBusy::SimdFloatCvt                 0                       # attempts to use FU when none available (Count)
system.cpu.statFuBusy::SimdFloatDiv                 0                       # attempts to use FU when none available (Count)
system.cpu.statFuBusy::SimdFloatMisc                0                       # attempts to use FU when none available (Count)
system.cpu.statFuBusy::SimdFloatMult                0                       # attempts to use FU when none available (Count)
system.cpu.statFuBusy::SimdFloatMultAcc             0                       # attempts to use FU when none available (Count)
system.cpu.statFuBusy::SimdFloatMatMultAcc            0                       # attempts to use FU when none available (Count)
system.cpu.statFuBusy::SimdFloatSqrt                0                       # attempts to use FU when none available (Count)
system.cpu.statFuBusy::SimdReduceAdd                0                       # attempts to use FU when none available (Count)
system.cpu.statFuBusy::SimdReduceAlu                0                       # attempts to use FU when none available (Count)
system.cpu.statFuBusy::SimdReduceCmp                0                       # attempts to use FU when none available (Count)
system.cpu.statFuBusy::SimdFloatReduceAdd            0                       # attempts to use FU when none available (Count)
system.cpu.statFuBusy::SimdFloatReduceCmp            0                       # attempts to use FU when none available (Count)
system.cpu.statFuBusy::SimdAes                      0                       # attempts to use FU when none available (Count)
system.cpu.statFuBusy::SimdAesMix                   0                       # attempts to use FU when none available (Count)
system.cpu.statFuBusy::SimdSha1Hash                 0                       # attempts to use FU when none available (Count)
system.cpu.statFuBusy::SimdSha1Hash2                0                       # attempts to use FU when none available (Count)
system.cpu.statFuBusy::SimdSha256Hash               0                       # attempts to use FU when none available (Count)
system.cpu.statFuBusy::SimdSha256Hash2              0                       # attempts to use FU when none available (Count)
system.cpu.statFuBusy::SimdShaSigma2                0                       # attempts to use FU when none available (Count)
system.cpu.statFuBusy::SimdShaSigma3                0                       # attempts to use FU when none available (Count)
system.cpu.statFuBusy::SimdPredAlu                  0                       # attempts to use FU when none available (Count)
system.cpu.statFuBusy::Matrix                       0                       # attempts to use FU when none available (Count)
system.cpu.statFuBusy::MatrixMov                    0                       # attempts to use FU when none available (Count)
system.cpu.statFuBusy::MatrixOP                     0                       # attempts to use FU when none available (Count)
system.cpu.statFuBusy::MemRead                      0                       # attempts to use FU when none available (Count)
system.cpu.statFuBusy::MemWrite                     0                       # attempts to use FU when none available (Count)
system.cpu.statFuBusy::FloatMemRead                 0                       # attempts to use FU when none available (Count)
system.cpu.statFuBusy::FloatMemWrite                0                       # attempts to use FU when none available (Count)
system.cpu.statFuBusy::IprAccess                    0                       # attempts to use FU when none available (Count)
system.cpu.statFuBusy::InstPrefetch                 0                       # attempts to use FU when none available (Count)
system.cpu.statFuBusy::VectorUnitStrideLoad            0                       # attempts to use FU when none available (Count)
system.cpu.statFuBusy::VectorUnitStrideStore            0                       # attempts to use FU when none available (Count)
system.cpu.statFuBusy::VectorUnitStrideMaskLoad            0                       # attempts to use FU when none available (Count)
system.cpu.statFuBusy::VectorUnitStrideMaskStore            0                       # attempts to use FU when none available (Count)
system.cpu.statFuBusy::VectorStridedLoad            0                       # attempts to use FU when none available (Count)
system.cpu.statFuBusy::VectorStridedStore            0                       # attempts to use FU when none available (Count)
system.cpu.statFuBusy::VectorIndexedLoad            0                       # attempts to use FU when none available (Count)
system.cpu.statFuBusy::VectorIndexedStore            0                       # attempts to use FU when none available (Count)
system.cpu.statFuBusy::VectorUnitStrideFaultOnlyFirstLoad            0                       # attempts to use FU when none available (Count)
system.cpu.statFuBusy::VectorWholeRegisterLoad            0                       # attempts to use FU when none available (Count)
system.cpu.statFuBusy::VectorWholeRegisterStore            0                       # attempts to use FU when none available (Count)
system.cpu.statFuBusy::VectorIntegerArith            0                       # attempts to use FU when none available (Count)
system.cpu.statFuBusy::VectorFloatArith             0                       # attempts to use FU when none available (Count)
system.cpu.statFuBusy::VectorFloatConvert            0                       # attempts to use FU when none available (Count)
system.cpu.statFuBusy::VectorIntegerReduce            0                       # attempts to use FU when none available (Count)
system.cpu.statFuBusy::VectorFloatReduce            0                       # attempts to use FU when none available (Count)
system.cpu.statFuBusy::VectorMisc                   0                       # attempts to use FU when none available (Count)
system.cpu.statFuBusy::VectorIntegerExtension            0                       # attempts to use FU when none available (Count)
system.cpu.statFuBusy::VectorConfig                 0                       # attempts to use FU when none available (Count)
system.cpu.statIssuedInstType_0::No_OpClass         2149      0.08%      0.08% # Number of instructions issued per FU type, per thread (Count)
system.cpu.statIssuedInstType_0::IntAlu       1665950     63.29%     63.37% # Number of instructions issued per FU type, per thread (Count)
system.cpu.statIssuedInstType_0::IntMult          798      0.03%     63.41% # Number of instructions issued per FU type, per thread (Count)
system.cpu.statIssuedInstType_0::IntDiv          1837      0.07%     63.48% # Number of instructions issued per FU type, per thread (Count)
system.cpu.statIssuedInstType_0::FloatAdd       100561      3.82%     67.30% # Number of instructions issued per FU type, per thread (Count)
system.cpu.statIssuedInstType_0::FloatCmp            0      0.00%     67.30% # Number of instructions issued per FU type, per thread (Count)
system.cpu.statIssuedInstType_0::FloatCvt            0      0.00%     67.30% # Number of instructions issued per FU type, per thread (Count)
system.cpu.statIssuedInstType_0::FloatMult            0      0.00%     67.30% # Number of instructions issued per FU type, per thread (Count)
system.cpu.statIssuedInstType_0::FloatMultAcc            0      0.00%     67.30% # Number of instructions issued per FU type, per thread (Count)
system.cpu.statIssuedInstType_0::FloatDiv            0      0.00%     67.30% # Number of instructions issued per FU type, per thread (Count)
system.cpu.statIssuedInstType_0::FloatMisc            0      0.00%     67.30% # Number of instructions issued per FU type, per thread (Count)
system.cpu.statIssuedInstType_0::FloatSqrt            0      0.00%     67.30% # Number of instructions issued per FU type, per thread (Count)
system.cpu.statIssuedInstType_0::SimdAdd          429      0.02%     67.31% # Number of instructions issued per FU type, per thread (Count)
system.cpu.statIssuedInstType_0::SimdAddAcc            0      0.00%     67.31% # Number of instructions issued per FU type, per thread (Count)
system.cpu.statIssuedInstType_0::SimdAlu         1113      0.04%     67.35% # Number of instructions issued per FU type, per thread (Count)
system.cpu.statIssuedInstType_0::SimdCmp            2      0.00%     67.35% # Number of instructions issued per FU type, per thread (Count)
system.cpu.statIssuedInstType_0::SimdCvt         1063      0.04%     67.39% # Number of instructions issued per FU type, per thread (Count)
system.cpu.statIssuedInstType_0::SimdMisc         1032      0.04%     67.43% # Number of instructions issued per FU type, per thread (Count)
system.cpu.statIssuedInstType_0::SimdMult            0      0.00%     67.43% # Number of instructions issued per FU type, per thread (Count)
system.cpu.statIssuedInstType_0::SimdMultAcc            0      0.00%     67.43% # Number of instructions issued per FU type, per thread (Count)
system.cpu.statIssuedInstType_0::SimdMatMultAcc            0      0.00%     67.43% # Number of instructions issued per FU type, per thread (Count)
system.cpu.statIssuedInstType_0::SimdShift          352      0.01%     67.45% # Number of instructions issued per FU type, per thread (Count)
system.cpu.statIssuedInstType_0::SimdShiftAcc            0      0.00%     67.45% # Number of instructions issued per FU type, per thread (Count)
system.cpu.statIssuedInstType_0::SimdDiv            0      0.00%     67.45% # Number of instructions issued per FU type, per thread (Count)
system.cpu.statIssuedInstType_0::SimdSqrt            0      0.00%     67.45% # Number of instructions issued per FU type, per thread (Count)
system.cpu.statIssuedInstType_0::SimdFloatAdd       100000      3.80%     71.25% # Number of instructions issued per FU type, per thread (Count)
system.cpu.statIssuedInstType_0::SimdFloatAlu            0      0.00%     71.25% # Number of instructions issued per FU type, per thread (Count)
system.cpu.statIssuedInstType_0::SimdFloatCmp            0      0.00%     71.25% # Number of instructions issued per FU type, per thread (Count)
system.cpu.statIssuedInstType_0::SimdFloatCvt            2      0.00%     71.25% # Number of instructions issued per FU type, per thread (Count)
system.cpu.statIssuedInstType_0::SimdFloatDiv            0      0.00%     71.25% # Number of instructions issued per FU type, per thread (Count)
system.cpu.statIssuedInstType_0::SimdFloatMisc            0      0.00%     71.25% # Number of instructions issued per FU type, per thread (Count)
system.cpu.statIssuedInstType_0::SimdFloatMult       100000      3.80%     75.05% # Number of instructions issued per FU type, per thread (Count)
system.cpu.statIssuedInstType_0::SimdFloatMultAcc            0      0.00%     75.05% # Number of instructions issued per FU type, per thread (Count)
system.cpu.statIssuedInstType_0::SimdFloatMatMultAcc            0      0.00%     75.05% # Number of instructions issued per FU type, per thread (Count)
system.cpu.statIssuedInstType_0::SimdFloatSqrt            0      0.00%     75.05% # Number of instructions issued per FU type, per thread (Count)
system.cpu.statIssuedInstType_0::SimdReduceAdd            0      0.00%     75.05% # Number of instructions issued per FU type, per thread (Count)
system.cpu.statIssuedInstType_0::SimdReduceAlu            0      0.00%     75.05% # Number of instructions issued per FU type, per thread (Count)
system.cpu.statIssuedInstType_0::SimdReduceCmp            0      0.00%     75.05% # Number of instructions issued per FU type, per thread (Count)
system.cpu.statIssuedInstType_0::SimdFloatReduceAdd            0      0.00%     75.05% # Number of instructions issued per FU type, per thread (Count)
system.cpu.statIssuedInstType_0::SimdFloatReduceCmp            0      0.00%     75.05% # Number of instructions issued per FU type, per thread (Count)
system.cpu.statIssuedInstType_0::SimdAes            0      0.00%     75.05% # Number of instructions issued per FU type, per thread (Count)
system.cpu.statIssuedInstType_0::SimdAesMix            0      0.00%     75.05% # Number of instructions issued per FU type, per thread (Count)
system.cpu.statIssuedInstType_0::SimdSha1Hash            0      0.00%     75.05% # Number of instructions issued per FU type, per thread (Count)
system.cpu.statIssuedInstType_0::SimdSha1Hash2            0      0.00%     75.05% # Number of instructions issued per FU type, per thread (Count)
system.cpu.statIssuedInstType_0::SimdSha256Hash            0      0.00%     75.05% # Number of instructions issued per FU type, per thread (Count)
system.cpu.statIssuedInstType_0::SimdSha256Hash2            0      0.00%     75.05% # Number of instructions issued per FU type, per thread (Count)
system.cpu.statIssuedInstType_0::SimdShaSigma2            0      0.00%     75.05% # Number of instructions issued per FU type, per thread (Count)
system.cpu.statIssuedInstType_0::SimdShaSigma3            0      0.00%     75.05% # Number of instructions issued per FU type, per thread (Count)
system.cpu.statIssuedInstType_0::SimdPredAlu            0      0.00%     75.05% # Number of instructions issued per FU type, per thread (Count)
system.cpu.statIssuedInstType_0::Matrix             0      0.00%     75.05% # Number of instructions issued per FU type, per thread (Count)
system.cpu.statIssuedInstType_0::MatrixMov            0      0.00%     75.05% # Number of instructions issued per FU type, per thread (Count)
system.cpu.statIssuedInstType_0::MatrixOP            0      0.00%     75.05% # Number of instructions issued per FU type, per thread (Count)
system.cpu.statIssuedInstType_0::MemRead        28099      1.07%     76.11% # Number of instructions issued per FU type, per thread (Count)
system.cpu.statIssuedInstType_0::MemWrite        13330      0.51%     76.62% # Number of instructions issued per FU type, per thread (Count)
system.cpu.statIssuedInstType_0::FloatMemRead       201682      7.66%     84.28% # Number of instructions issued per FU type, per thread (Count)
system.cpu.statIssuedInstType_0::FloatMemWrite       413712     15.72%    100.00% # Number of instructions issued per FU type, per thread (Count)
system.cpu.statIssuedInstType_0::IprAccess            0      0.00%    100.00% # Number of instructions issued per FU type, per thread (Count)
system.cpu.statIssuedInstType_0::InstPrefetch            0      0.00%    100.00% # Number of instructions issued per FU type, per thread (Count)
system.cpu.statIssuedInstType_0::VectorUnitStrideLoad            0      0.00%    100.00% # Number of instructions issued per FU type, per thread (Count)
system.cpu.statIssuedInstType_0::VectorUnitStrideStore            0      0.00%    100.00% # Number of instructions issued per FU type, per thread (Count)
system.cpu.statIssuedInstType_0::VectorUnitStrideMaskLoad            0      0.00%    100.00% # Number of instructions issued per FU type, per thread (Count)
system.cpu.statIssuedInstType_0::VectorUnitStrideMaskStore            0      0.00%    100.00% # Number of instructions issued per FU type, per thread (Count)
system.cpu.statIssuedInstType_0::VectorStridedLoad            0      0.00%    100.00% # Number of instructions issued per FU type, per thread (Count)
system.cpu.statIssuedInstType_0::VectorStridedStore            0      0.00%    100.00% # Number of instructions issued per FU type, per thread (Count)
system.cpu.statIssuedInstType_0::VectorIndexedLoad            0      0.00%    100.00% # Number of instructions issued per FU type, per thread (Count)
system.cpu.statIssuedInstType_0::VectorIndexedStore            0      0.00%    100.00% # Number of instructions issued per FU type, per thread (Count)
system.cpu.statIssuedInstType_0::VectorUnitStrideFaultOnlyFirstLoad            0      0.00%    100.00% # Number of instructions issued per FU type, per thread (Count)
system.cpu.statIssuedInstType_0::VectorWholeRegisterLoad            0      0.00%    100.00% # Number of instructions issued per FU type, per thread (Count)
system.cpu.statIssuedInstType_0::VectorWholeRegisterStore            0      0.00%    100.00% # Number of instructions issued per FU type, per thread (Count)
system.cpu.statIssuedInstType_0::VectorIntegerArith            0      0.00%    100.00% # Number of instructions issued per FU type, per thread (Count)
system.cpu.statIssuedInstType_0::VectorFloatArith            0      0.00%    100.00% # Number of instructions issued per FU type, per thread (Count)
system.cpu.statIssuedInstType_0::VectorFloatConvert            0      0.00%    100.00% # Number of instructions issued per FU type, per thread (Count)
system.cpu.statIssuedInstType_0::VectorIntegerReduce            0      0.00%    100.00% # Number of instructions issued per FU type, per thread (Count)
system.cpu.statIssuedInstType_0::VectorFloatReduce            0      0.00%    100.00% # Number of instructions issued per FU type, per thread (Count)
system.cpu.statIssuedInstType_0::VectorMisc            0      0.00%    100.00% # Number of instructions issued per FU type, per thread (Count)
system.cpu.statIssuedInstType_0::VectorIntegerExtension            0      0.00%    100.00% # Number of instructions issued per FU type, per thread (Count)
system.cpu.statIssuedInstType_0::VectorConfig            0      0.00%    100.00% # Number of instructions issued per FU type, per thread (Count)
system.cpu.statIssuedInstType_0::total        2632111                       # Number of instructions issued per FU type, per thread (Count)
system.cpu.issueRate                         1.045141                       # Inst issue rate ((Count/Cycle))
system.cpu.fuBusy                                   0                       # FU busy when requested (Count)
system.cpu.fuBusyRate                               0                       # FU busy rate (busy events/executed inst) ((Count/Count))
system.cpu.intInstQueueReads                  5923179                       # Number of integer instruction queue reads (Count)
system.cpu.intInstQueueWrites                 1775165                       # Number of integer instruction queue writes (Count)
system.cpu.intInstQueueWakeupAccesses         1708353                       # Number of integer instruction queue wakeup accesses (Count)
system.cpu.fpInstQueueReads                   1840755                       # Number of floating instruction queue reads (Count)
system.cpu.fpInstQueueWrites                   934448                       # Number of floating instruction queue writes (Count)
system.cpu.fpInstQueueWakeupAccesses           907648                       # Number of floating instruction queue wakeup accesses (Count)
system.cpu.vecInstQueueReads                        0                       # Number of vector instruction queue reads (Count)
system.cpu.vecInstQueueWrites                       0                       # Number of vector instruction queue writes (Count)
system.cpu.vecInstQueueWakeupAccesses               0                       # Number of vector instruction queue wakeup accesses (Count)
system.cpu.intAluAccesses                     1709620                       # Number of integer alu accesses (Count)
system.cpu.fpAluAccesses                       920342                       # Number of floating point alu accesses (Count)
system.cpu.vecAluAccesses                           0                       # Number of vector alu accesses (Count)
system.cpu.numSquashedInsts                      1904                       # Number of squashed instructions skipped in execute (Count)
system.cpu.numSwp                                   0                       # Number of swp insts executed (Count)
system.cpu.timesIdled                             473                       # Number of times that the entire CPU went into an idle state and unscheduled itself (Count)
system.cpu.idleCycles                           20095                       # Total number of cycles that the CPU has spent unscheduled due to idling (Cycle)
system.cpu.MemDepUnit__0.insertedLoads         230167                       # Number of loads inserted to the mem dependence unit. (Count)
system.cpu.MemDepUnit__0.insertedStores        427670                       # Number of stores inserted to the mem dependence unit. (Count)
system.cpu.MemDepUnit__0.conflictingLoads          395                       # Number of conflicting loads. (Count)
system.cpu.MemDepUnit__0.conflictingStores          339                       # Number of conflicting stores. (Count)
system.cpu.MemDepUnit__1.insertedLoads              0                       # Number of loads inserted to the mem dependence unit. (Count)
system.cpu.MemDepUnit__1.insertedStores             0                       # Number of stores inserted to the mem dependence unit. (Count)
system.cpu.MemDepUnit__1.conflictingLoads            0                       # Number of conflicting loads. (Count)
system.cpu.MemDepUnit__1.conflictingStores            0                       # Number of conflicting stores. (Count)
system.cpu.MemDepUnit__2.insertedLoads              0                       # Number of loads inserted to the mem dependence unit. (Count)
system.cpu.MemDepUnit__2.insertedStores             0                       # Number of stores inserted to the mem dependence unit. (Count)
system.cpu.MemDepUnit__2.conflictingLoads            0                       # Number of conflicting loads. (Count)
system.cpu.MemDepUnit__2.conflictingStores            0                       # Number of conflicting stores. (Count)
system.cpu.MemDepUnit__3.insertedLoads              0                       # Number of loads inserted to the mem dependence unit. (Count)
system.cpu.MemDepUnit__3.insertedStores             0                       # Number of stores inserted to the mem dependence unit. (Count)
system.cpu.MemDepUnit__3.conflictingLoads            0                       # Number of conflicting loads. (Count)
system.cpu.MemDepUnit__3.conflictingStores            0                       # Number of conflicting stores. (Count)
system.cpu.branchPred.lookups_0::NoBranch          276      0.11%      0.11% # Number of BP lookups (Count)
system.cpu.branchPred.lookups_0::Return          1157      0.47%      0.58% # Number of BP lookups (Count)
system.cpu.branchPred.lookups_0::CallDirect         1204      0.49%      1.07% # Number of BP lookups (Count)
system.cpu.branchPred.lookups_0::CallIndirect          139      0.06%      1.12% # Number of BP lookups (Count)
system.cpu.branchPred.lookups_0::DirectCond       242625     98.27%     99.39% # Number of BP lookups (Count)
system.cpu.branchPred.lookups_0::DirectUncond         1063      0.43%     99.82% # Number of BP lookups (Count)
system.cpu.branchPred.lookups_0::IndirectCond            0      0.00%     99.82% # Number of BP lookups (Count)
system.cpu.branchPred.lookups_0::IndirectUncond          434      0.18%    100.00% # Number of BP lookups (Count)
system.cpu.branchPred.lookups_0::total         246898                       # Number of BP lookups (Count)
system.cpu.branchPred.squashes_0::NoBranch          240      1.80%      1.80% # Number of branches that got squashed (completely removed) as an earlier branch was mispredicted. (Count)
system.cpu.branchPred.squashes_0::Return          228      1.71%      3.52% # Number of branches that got squashed (completely removed) as an earlier branch was mispredicted. (Count)
system.cpu.branchPred.squashes_0::CallDirect          381      2.86%      6.38% # Number of branches that got squashed (completely removed) as an earlier branch was mispredicted. (Count)
system.cpu.branchPred.squashes_0::CallIndirect           28      0.21%      6.59% # Number of branches that got squashed (completely removed) as an earlier branch was mispredicted. (Count)
system.cpu.branchPred.squashes_0::DirectCond        11935     89.65%     96.24% # Number of branches that got squashed (completely removed) as an earlier branch was mispredicted. (Count)
system.cpu.branchPred.squashes_0::DirectUncond          298      2.24%     98.48% # Number of branches that got squashed (completely removed) as an earlier branch was mispredicted. (Count)
system.cpu.branchPred.squashes_0::IndirectCond            0      0.00%     98.48% # Number of branches that got squashed (completely removed) as an earlier branch was mispredicted. (Count)
system.cpu.branchPred.squashes_0::IndirectUncond          203      1.52%    100.00% # Number of branches that got squashed (completely removed) as an earlier branch was mispredicted. (Count)
system.cpu.branchPred.squashes_0::total         13313                       # Number of branches that got squashed (completely removed) as an earlier branch was mispredicted. (Count)
system.cpu.branchPred.corrected_0::NoBranch           41      1.28%      1.28% # Number of branches that got corrected but not yet commited. Branches get corrected by decode or after execute. Also a branch misprediction can be detected out-of-order. Therefore, a corrected branch might not end up beeing committed in case an even earlier branch was mispredicted (Count)
system.cpu.branchPred.corrected_0::Return            0      0.00%      1.28% # Number of branches that got corrected but not yet commited. Branches get corrected by decode or after execute. Also a branch misprediction can be detected out-of-order. Therefore, a corrected branch might not end up beeing committed in case an even earlier branch was mispredicted (Count)
system.cpu.branchPred.corrected_0::CallDirect          331     10.32%     11.60% # Number of branches that got corrected but not yet commited. Branches get corrected by decode or after execute. Also a branch misprediction can be detected out-of-order. Therefore, a corrected branch might not end up beeing committed in case an even earlier branch was mispredicted (Count)
system.cpu.branchPred.corrected_0::CallIndirect          101      3.15%     14.75% # Number of branches that got corrected but not yet commited. Branches get corrected by decode or after execute. Also a branch misprediction can be detected out-of-order. Therefore, a corrected branch might not end up beeing committed in case an even earlier branch was mispredicted (Count)
system.cpu.branchPred.corrected_0::DirectCond         2291     71.46%     86.21% # Number of branches that got corrected but not yet commited. Branches get corrected by decode or after execute. Also a branch misprediction can be detected out-of-order. Therefore, a corrected branch might not end up beeing committed in case an even earlier branch was mispredicted (Count)
system.cpu.branchPred.corrected_0::DirectUncond          283      8.83%     95.04% # Number of branches that got corrected but not yet commited. Branches get corrected by decode or after execute. Also a branch misprediction can be detected out-of-order. Therefore, a corrected branch might not end up beeing committed in case an even earlier branch was mispredicted (Count)
system.cpu.branchPred.corrected_0::IndirectCond            0      0.00%     95.04% # Number of branches that got corrected but not yet commited. Branches get corrected by decode or after execute. Also a branch misprediction can be detected out-of-order. Therefore, a corrected branch might not end up beeing committed in case an even earlier branch was mispredicted (Count)
system.cpu.branchPred.corrected_0::IndirectUncond          159      4.96%    100.00% # Number of branches that got corrected but not yet commited. Branches get corrected by decode or after execute. Also a branch misprediction can be detected out-of-order. Therefore, a corrected branch might not end up beeing committed in case an even earlier branch was mispredicted (Count)
system.cpu.branchPred.corrected_0::total         3206                       # Number of branches that got corrected but not yet commited. Branches get corrected by decode or after execute. Also a branch misprediction can be detected out-of-order. Therefore, a corrected branch might not end up beeing committed in case an even earlier branch was mispredicted (Count)
system.cpu.branchPred.earlyResteers_0::NoBranch            0                       # Number of branches that got redirected after decode. (Count)
system.cpu.branchPred.earlyResteers_0::Return            0                       # Number of branches that got redirected after decode. (Count)
system.cpu.branchPred.earlyResteers_0::CallDirect            0                       # Number of branches that got redirected after decode. (Count)
system.cpu.branchPred.earlyResteers_0::CallIndirect            0                       # Number of branches that got redirected after decode. (Count)
system.cpu.branchPred.earlyResteers_0::DirectCond            0                       # Number of branches that got redirected after decode. (Count)
system.cpu.branchPred.earlyResteers_0::DirectUncond            0                       # Number of branches that got redirected after decode. (Count)
system.cpu.branchPred.earlyResteers_0::IndirectCond            0                       # Number of branches that got redirected after decode. (Count)
system.cpu.branchPred.earlyResteers_0::IndirectUncond            0                       # Number of branches that got redirected after decode. (Count)
system.cpu.branchPred.earlyResteers_0::total            0                       # Number of branches that got redirected after decode. (Count)
system.cpu.branchPred.committed_0::NoBranch           36      0.02%      0.02% # Number of branches finally committed  (Count)
system.cpu.branchPred.committed_0::Return          929      0.40%      0.41% # Number of branches finally committed  (Count)
system.cpu.branchPred.committed_0::CallDirect          823      0.35%      0.77% # Number of branches finally committed  (Count)
system.cpu.branchPred.committed_0::CallIndirect          111      0.05%      0.81% # Number of branches finally committed  (Count)
system.cpu.branchPred.committed_0::DirectCond       230689     98.76%     99.57% # Number of branches finally committed  (Count)
system.cpu.branchPred.committed_0::DirectUncond          764      0.33%     99.90% # Number of branches finally committed  (Count)
system.cpu.branchPred.committed_0::IndirectCond            0      0.00%     99.90% # Number of branches finally committed  (Count)
system.cpu.branchPred.committed_0::IndirectUncond          231      0.10%    100.00% # Number of branches finally committed  (Count)
system.cpu.branchPred.committed_0::total       233583                       # Number of branches finally committed  (Count)
system.cpu.branchPred.mispredicted_0::NoBranch           36      1.25%      1.25% # Number of committed branches that were mispredicted. (Count)
system.cpu.branchPred.mispredicted_0::Return            0      0.00%      1.25% # Number of committed branches that were mispredicted. (Count)
system.cpu.branchPred.mispredicted_0::CallDirect          228      7.94%      9.20% # Number of committed branches that were mispredicted. (Count)
system.cpu.branchPred.mispredicted_0::CallIndirect          100      3.48%     12.68% # Number of committed branches that were mispredicted. (Count)
system.cpu.branchPred.mispredicted_0::DirectCond         2181     75.99%     88.68% # Number of committed branches that were mispredicted. (Count)
system.cpu.branchPred.mispredicted_0::DirectUncond          176      6.13%     94.81% # Number of committed branches that were mispredicted. (Count)
system.cpu.branchPred.mispredicted_0::IndirectCond            0      0.00%     94.81% # Number of committed branches that were mispredicted. (Count)
system.cpu.branchPred.mispredicted_0::IndirectUncond          149      5.19%    100.00% # Number of committed branches that were mispredicted. (Count)
system.cpu.branchPred.mispredicted_0::total         2870                       # Number of committed branches that were mispredicted. (Count)
system.cpu.branchPred.targetProvider_0::NoTarget        15512      6.28%      6.28% # The component providing the target for taken branches (Count)
system.cpu.branchPred.targetProvider_0::BTB       230123     93.21%     99.49% # The component providing the target for taken branches (Count)
system.cpu.branchPred.targetProvider_0::RAS         1157      0.47%     99.96% # The component providing the target for taken branches (Count)
system.cpu.branchPred.targetProvider_0::Indirect          106      0.04%    100.00% # The component providing the target for taken branches (Count)
system.cpu.branchPred.targetProvider_0::total       246898                       # The component providing the target for taken branches (Count)
system.cpu.branchPred.targetWrong_0::NoBranch         2312     78.51%     78.51% # Number of branches where the target was incorrect or not available at prediction time. (Count)
system.cpu.branchPred.targetWrong_0::Return          619     21.02%     99.52% # Number of branches where the target was incorrect or not available at prediction time. (Count)
system.cpu.branchPred.targetWrong_0::CallDirect            0      0.00%     99.52% # Number of branches where the target was incorrect or not available at prediction time. (Count)
system.cpu.branchPred.targetWrong_0::CallIndirect           14      0.48%    100.00% # Number of branches where the target was incorrect or not available at prediction time. (Count)
system.cpu.branchPred.targetWrong_0::DirectCond            0      0.00%    100.00% # Number of branches where the target was incorrect or not available at prediction time. (Count)
system.cpu.branchPred.targetWrong_0::DirectUncond            0      0.00%    100.00% # Number of branches where the target was incorrect or not available at prediction time. (Count)
system.cpu.branchPred.targetWrong_0::IndirectCond            0      0.00%    100.00% # Number of branches where the target was incorrect or not available at prediction time. (Count)
system.cpu.branchPred.targetWrong_0::IndirectUncond            0      0.00%    100.00% # Number of branches where the target was incorrect or not available at prediction time. (Count)
system.cpu.branchPred.targetWrong_0::total         2945                       # Number of branches where the target was incorrect or not available at prediction time. (Count)
system.cpu.branchPred.condPredicted            242901                       # Number of conditional branches predicted (Count)
system.cpu.branchPred.condPredictedTaken       229341                       # Number of conditional branches predicted as taken (Count)
system.cpu.branchPred.condIncorrect              3206                       # Number of conditional branches incorrect (Count)
system.cpu.branchPred.predTakenBTBMiss            750                       # Number of branches predicted taken but missed in BTB (Count)
system.cpu.branchPred.NotTakenMispredicted         2500                       # Number branches predicted 'not taken' but turned out to be taken (Count)
system.cpu.branchPred.TakenMispredicted           706                       # Number branches predicted taken but are actually not taken (Count)
system.cpu.branchPred.BTBLookups               246898                       # Number of BTB lookups (Count)
system.cpu.branchPred.BTBUpdates                 2199                       # Number of BTB updates (Count)
system.cpu.branchPred.BTBHits                  235131                       # Number of BTB hits (Count)
system.cpu.branchPred.BTBHitRatio            0.952341                       # BTB Hit Ratio (Ratio)
system.cpu.branchPred.BTBMispredicted            1398                       # Number BTB mispredictions. No target found or target wrong (Count)
system.cpu.branchPred.indirectLookups             573                       # Number of indirect predictor lookups. (Count)
system.cpu.branchPred.indirectHits                106                       # Number of indirect target hits. (Count)
system.cpu.branchPred.indirectMisses              467                       # Number of indirect misses. (Count)
system.cpu.branchPred.indirectMispredicted            0                       # Number of mispredicted indirect branches. (Count)
system.cpu.branchPred.btb.lookups::NoBranch          276      0.11%      0.11% # Number of BTB lookups (Count)
system.cpu.branchPred.btb.lookups::Return         1157      0.47%      0.58% # Number of BTB lookups (Count)
system.cpu.branchPred.btb.lookups::CallDirect         1204      0.49%      1.07% # Number of BTB lookups (Count)
system.cpu.branchPred.btb.lookups::CallIndirect          139      0.06%      1.12% # Number of BTB lookups (Count)
system.cpu.branchPred.btb.lookups::DirectCond       242625     98.27%     99.39% # Number of BTB lookups (Count)
system.cpu.branchPred.btb.lookups::DirectUncond         1063      0.43%     99.82% # Number of BTB lookups (Count)
system.cpu.branchPred.btb.lookups::IndirectCond            0      0.00%     99.82% # Number of BTB lookups (Count)
system.cpu.branchPred.btb.lookups::IndirectUncond          434      0.18%    100.00% # Number of BTB lookups (Count)
system.cpu.branchPred.btb.lookups::total       246898                       # Number of BTB lookups (Count)
system.cpu.branchPred.btb.misses::NoBranch           89      0.76%      0.76% # Number of BTB misses (Count)
system.cpu.branchPred.btb.misses::Return         1157      9.83%     10.59% # Number of BTB misses (Count)
system.cpu.branchPred.btb.misses::CallDirect          429      3.65%     14.23% # Number of BTB misses (Count)
system.cpu.branchPred.btb.misses::CallIndirect          139      1.18%     15.42% # Number of BTB misses (Count)
system.cpu.branchPred.btb.misses::DirectCond         9163     77.87%     93.29% # Number of BTB misses (Count)
system.cpu.branchPred.btb.misses::DirectUncond          356      3.03%     96.31% # Number of BTB misses (Count)
system.cpu.branchPred.btb.misses::IndirectCond            0      0.00%     96.31% # Number of BTB misses (Count)
system.cpu.branchPred.btb.misses::IndirectUncond          434      3.69%    100.00% # Number of BTB misses (Count)
system.cpu.branchPred.btb.misses::total         11767                       # Number of BTB misses (Count)
system.cpu.branchPred.btb.updates::NoBranch            0      0.00%      0.00% # Number of BTB updates (Count)
system.cpu.branchPred.btb.updates::Return            0      0.00%      0.00% # Number of BTB updates (Count)
system.cpu.branchPred.btb.updates::CallDirect          331     15.05%     15.05% # Number of BTB updates (Count)
system.cpu.branchPred.btb.updates::CallIndirect            0      0.00%     15.05% # Number of BTB updates (Count)
system.cpu.branchPred.btb.updates::DirectCond         1585     72.08%     87.13% # Number of BTB updates (Count)
system.cpu.branchPred.btb.updates::DirectUncond          283     12.87%    100.00% # Number of BTB updates (Count)
system.cpu.branchPred.btb.updates::IndirectCond            0      0.00%    100.00% # Number of BTB updates (Count)
system.cpu.branchPred.btb.updates::IndirectUncond            0      0.00%    100.00% # Number of BTB updates (Count)
system.cpu.branchPred.btb.updates::total         2199                       # Number of BTB updates (Count)
system.cpu.branchPred.btb.mispredict::NoBranch            0      0.00%      0.00% # Number of BTB mispredictions. No target found or target wrong. (Count)
system.cpu.branchPred.btb.mispredict::Return            0      0.00%      0.00% # Number of BTB mispredictions. No target found or target wrong. (Count)
system.cpu.branchPred.btb.mispredict::CallDirect          331     15.05%     15.05% # Number of BTB mispredictions. No target found or target wrong. (Count)
system.cpu.branchPred.btb.mispredict::CallIndirect            0      0.00%     15.05% # Number of BTB mispredictions. No target found or target wrong. (Count)
system.cpu.branchPred.btb.mispredict::DirectCond         1585     72.08%     87.13% # Number of BTB mispredictions. No target found or target wrong. (Count)
system.cpu.branchPred.btb.mispredict::DirectUncond          283     12.87%    100.00% # Number of BTB mispredictions. No target found or target wrong. (Count)
system.cpu.branchPred.btb.mispredict::IndirectCond            0      0.00%    100.00% # Number of BTB mispredictions. No target found or target wrong. (Count)
system.cpu.branchPred.btb.mispredict::IndirectUncond            0      0.00%    100.00% # Number of BTB mispredictions. No target found or target wrong. (Count)
system.cpu.branchPred.btb.mispredict::total         2199                       # Number of BTB mispredictions. No target found or target wrong. (Count)
system.cpu.branchPred.btb.power_state.pwrStateResidencyTicks::UNDEFINED   2518425000                       # Cumulative time (in ticks) in various power states (Tick)
system.cpu.branchPred.indirectBranchPred.lookups          573                       # Number of lookups (Count)
system.cpu.branchPred.indirectBranchPred.hits          106                       # Number of hits of a tag (Count)
system.cpu.branchPred.indirectBranchPred.misses          467                       # Number of misses (Count)
system.cpu.branchPred.indirectBranchPred.targetRecords          260                       # Number of targets that where recorded/installed in the cache (Count)
system.cpu.branchPred.indirectBranchPred.indirectRecords          833                       # Number of indirect branches/calls recorded in the indirect hist (Count)
system.cpu.branchPred.indirectBranchPred.speculativeOverflows            3                       # Number of times more than the allowed capacity for speculative branches/calls where in flight and destroy the path history (Count)
system.cpu.branchPred.ras.pushes                 1571                       # Number of times a PC was pushed onto the RAS (Count)
system.cpu.branchPred.ras.pops                   1566                       # Number of times a PC was poped from the RAS (Count)
system.cpu.branchPred.ras.squashes                637                       # Number of times the stack operation was squashed due to wrong speculation. (Count)
system.cpu.branchPred.ras.used                    929                       # Number of times the RAS is the provider (Count)
system.cpu.branchPred.ras.correct                 929                       # Number of times the RAS is the provider and the prediction is correct (Count)
system.cpu.branchPred.ras.incorrect                 0                       # Number of times the RAS is the provider and the prediction is wrong (Count)
system.cpu.commit.commitSquashedInsts           65932                       # The number of squashed insts skipped by commit (Count)
system.cpu.commit.commitNonSpecStalls              90                       # The number of times commit has been forced to stall to communicate backwards (Count)
system.cpu.commit.branchMispredicts              2799                       # The number of times a branch was mispredicted (Count)
system.cpu.commit.numCommittedDist::samples      2463946                       # Number of insts commited each cycle (Count)
system.cpu.commit.numCommittedDist::mean     1.044616                       # Number of insts commited each cycle (Count)
system.cpu.commit.numCommittedDist::stdev     0.952583                       # Number of insts commited each cycle (Count)
system.cpu.commit.numCommittedDist::underflows            0      0.00%      0.00% # Number of insts commited each cycle (Count)
system.cpu.commit.numCommittedDist::0         1065396     43.24%     43.24% # Number of insts commited each cycle (Count)
system.cpu.commit.numCommittedDist::1          223223      9.06%     52.30% # Number of insts commited each cycle (Count)
system.cpu.commit.numCommittedDist::2         1175327     47.70%    100.00% # Number of insts commited each cycle (Count)
system.cpu.commit.numCommittedDist::overflows            0      0.00%    100.00% # Number of insts commited each cycle (Count)
system.cpu.commit.numCommittedDist::min_value            0                       # Number of insts commited each cycle (Count)
system.cpu.commit.numCommittedDist::max_value            2                       # Number of insts commited each cycle (Count)
system.cpu.commit.numCommittedDist::total      2463946                       # Number of insts commited each cycle (Count)
system.cpu.commit.amos                              0                       # Number of atomic instructions committed (Count)
system.cpu.commit.membars                          60                       # Number of memory barriers committed (Count)
system.cpu.commit.functionCalls                   934                       # Number of function calls committed. (Count)
system.cpu.commit.committedInstType_0::No_OpClass         1391      0.05%      0.05% # Class of committed instruction (Count)
system.cpu.commit.committedInstType_0::IntAlu      1626518     63.19%     63.25% # Class of committed instruction (Count)
system.cpu.commit.committedInstType_0::IntMult          724      0.03%     63.28% # Class of committed instruction (Count)
system.cpu.commit.committedInstType_0::IntDiv         1493      0.06%     63.33% # Class of committed instruction (Count)
system.cpu.commit.committedInstType_0::FloatAdd       100412      3.90%     67.23% # Class of committed instruction (Count)
system.cpu.commit.committedInstType_0::FloatCmp            0      0.00%     67.23% # Class of committed instruction (Count)
system.cpu.commit.committedInstType_0::FloatCvt            0      0.00%     67.23% # Class of committed instruction (Count)
system.cpu.commit.committedInstType_0::FloatMult            0      0.00%     67.23% # Class of committed instruction (Count)
system.cpu.commit.committedInstType_0::FloatMultAcc            0      0.00%     67.23% # Class of committed instruction (Count)
system.cpu.commit.committedInstType_0::FloatDiv            0      0.00%     67.23% # Class of committed instruction (Count)
system.cpu.commit.committedInstType_0::FloatMisc            0      0.00%     67.23% # Class of committed instruction (Count)
system.cpu.commit.committedInstType_0::FloatSqrt            0      0.00%     67.23% # Class of committed instruction (Count)
system.cpu.commit.committedInstType_0::SimdAdd          424      0.02%     67.25% # Class of committed instruction (Count)
system.cpu.commit.committedInstType_0::SimdAddAcc            0      0.00%     67.25% # Class of committed instruction (Count)
system.cpu.commit.committedInstType_0::SimdAlu          919      0.04%     67.29% # Class of committed instruction (Count)
system.cpu.commit.committedInstType_0::SimdCmp            2      0.00%     67.29% # Class of committed instruction (Count)
system.cpu.commit.committedInstType_0::SimdCvt          970      0.04%     67.32% # Class of committed instruction (Count)
system.cpu.commit.committedInstType_0::SimdMisc         1017      0.04%     67.36% # Class of committed instruction (Count)
system.cpu.commit.committedInstType_0::SimdMult            0      0.00%     67.36% # Class of committed instruction (Count)
system.cpu.commit.committedInstType_0::SimdMultAcc            0      0.00%     67.36% # Class of committed instruction (Count)
system.cpu.commit.committedInstType_0::SimdMatMultAcc            0      0.00%     67.36% # Class of committed instruction (Count)
system.cpu.commit.committedInstType_0::SimdShift          201      0.01%     67.37% # Class of committed instruction (Count)
system.cpu.commit.committedInstType_0::SimdShiftAcc            0      0.00%     67.37% # Class of committed instruction (Count)
system.cpu.commit.committedInstType_0::SimdDiv            0      0.00%     67.37% # Class of committed instruction (Count)
system.cpu.commit.committedInstType_0::SimdSqrt            0      0.00%     67.37% # Class of committed instruction (Count)
system.cpu.commit.committedInstType_0::SimdFloatAdd       100000      3.89%     71.26% # Class of committed instruction (Count)
system.cpu.commit.committedInstType_0::SimdFloatAlu            0      0.00%     71.26% # Class of committed instruction (Count)
system.cpu.commit.committedInstType_0::SimdFloatCmp            0      0.00%     71.26% # Class of committed instruction (Count)
system.cpu.commit.committedInstType_0::SimdFloatCvt            2      0.00%     71.26% # Class of committed instruction (Count)
system.cpu.commit.committedInstType_0::SimdFloatDiv            0      0.00%     71.26% # Class of committed instruction (Count)
system.cpu.commit.committedInstType_0::SimdFloatMisc            0      0.00%     71.26% # Class of committed instruction (Count)
system.cpu.commit.committedInstType_0::SimdFloatMult       100000      3.89%     75.14% # Class of committed instruction (Count)
system.cpu.commit.committedInstType_0::SimdFloatMultAcc            0      0.00%     75.14% # Class of committed instruction (Count)
system.cpu.commit.committedInstType_0::SimdFloatMatMultAcc            0      0.00%     75.14% # Class of committed instruction (Count)
system.cpu.commit.committedInstType_0::SimdFloatSqrt            0      0.00%     75.14% # Class of committed instruction (Count)
system.cpu.commit.committedInstType_0::SimdReduceAdd            0      0.00%     75.14% # Class of committed instruction (Count)
system.cpu.commit.committedInstType_0::SimdReduceAlu            0      0.00%     75.14% # Class of committed instruction (Count)
system.cpu.commit.committedInstType_0::SimdReduceCmp            0      0.00%     75.14% # Class of committed instruction (Count)
system.cpu.commit.committedInstType_0::SimdFloatReduceAdd            0      0.00%     75.14% # Class of committed instruction (Count)
system.cpu.commit.committedInstType_0::SimdFloatReduceCmp            0      0.00%     75.14% # Class of committed instruction (Count)
system.cpu.commit.committedInstType_0::SimdAes            0      0.00%     75.14% # Class of committed instruction (Count)
system.cpu.commit.committedInstType_0::SimdAesMix            0      0.00%     75.14% # Class of committed instruction (Count)
system.cpu.commit.committedInstType_0::SimdSha1Hash            0      0.00%     75.14% # Class of committed instruction (Count)
system.cpu.commit.committedInstType_0::SimdSha1Hash2            0      0.00%     75.14% # Class of committed instruction (Count)
system.cpu.commit.committedInstType_0::SimdSha256Hash            0      0.00%     75.14% # Class of committed instruction (Count)
system.cpu.commit.committedInstType_0::SimdSha256Hash2            0      0.00%     75.14% # Class of committed instruction (Count)
system.cpu.commit.committedInstType_0::SimdShaSigma2            0      0.00%     75.14% # Class of committed instruction (Count)
system.cpu.commit.committedInstType_0::SimdShaSigma3            0      0.00%     75.14% # Class of committed instruction (Count)
system.cpu.commit.committedInstType_0::SimdPredAlu            0      0.00%     75.14% # Class of committed instruction (Count)
system.cpu.commit.committedInstType_0::Matrix            0      0.00%     75.14% # Class of committed instruction (Count)
system.cpu.commit.committedInstType_0::MatrixMov            0      0.00%     75.14% # Class of committed instruction (Count)
system.cpu.commit.committedInstType_0::MatrixOP            0      0.00%     75.14% # Class of committed instruction (Count)
system.cpu.commit.committedInstType_0::MemRead        25158      0.98%     76.12% # Class of committed instruction (Count)
system.cpu.commit.committedInstType_0::MemWrite        12418      0.48%     76.60% # Class of committed instruction (Count)
system.cpu.commit.committedInstType_0::FloatMemRead       201070      7.81%     84.41% # Class of committed instruction (Count)
system.cpu.commit.committedInstType_0::FloatMemWrite       401158     15.59%    100.00% # Class of committed instruction (Count)
system.cpu.commit.committedInstType_0::IprAccess            0      0.00%    100.00% # Class of committed instruction (Count)
system.cpu.commit.committedInstType_0::InstPrefetch            0      0.00%    100.00% # Class of committed instruction (Count)
system.cpu.commit.committedInstType_0::VectorUnitStrideLoad            0      0.00%    100.00% # Class of committed instruction (Count)
system.cpu.commit.committedInstType_0::VectorUnitStrideStore            0      0.00%    100.00% # Class of committed instruction (Count)
system.cpu.commit.committedInstType_0::VectorUnitStrideMaskLoad            0      0.00%    100.00% # Class of committed instruction (Count)
system.cpu.commit.committedInstType_0::VectorUnitStrideMaskStore            0      0.00%    100.00% # Class of committed instruction (Count)
system.cpu.commit.committedInstType_0::VectorStridedLoad            0      0.00%    100.00% # Class of committed instruction (Count)
system.cpu.commit.committedInstType_0::VectorStridedStore            0      0.00%    100.00% # Class of committed instruction (Count)
system.cpu.commit.committedInstType_0::VectorIndexedLoad            0      0.00%    100.00% # Class of committed instruction (Count)
system.cpu.commit.committedInstType_0::VectorIndexedStore            0      0.00%    100.00% # Class of committed instruction (Count)
system.cpu.commit.committedInstType_0::VectorUnitStrideFaultOnlyFirstLoad            0      0.00%    100.00% # Class of committed instruction (Count)
system.cpu.commit.committedInstType_0::VectorWholeRegisterLoad            0      0.00%    100.00% # Class of committed instruction (Count)
system.cpu.commit.committedInstType_0::VectorWholeRegisterStore            0      0.00%    100.00% # Class of committed instruction (Count)
system.cpu.commit.committedInstType_0::VectorIntegerArith            0      0.00%    100.00% # Class of committed instruction (Count)
system.cpu.commit.committedInstType_0::VectorFloatArith            0      0.00%    100.00% # Class of committed instruction (Count)
system.cpu.commit.committedInstType_0::VectorFloatConvert            0      0.00%    100.00% # Class of committed instruction (Count)
system.cpu.commit.committedInstType_0::VectorIntegerReduce            0      0.00%    100.00% # Class of committed instruction (Count)
system.cpu.commit.committedInstType_0::VectorFloatReduce            0      0.00%    100.00% # Class of committed instruction (Count)
system.cpu.commit.committedInstType_0::VectorMisc            0      0.00%    100.00% # Class of committed instruction (Count)
system.cpu.commit.committedInstType_0::VectorIntegerExtension            0      0.00%    100.00% # Class of committed instruction (Count)
system.cpu.commit.committedInstType_0::VectorConfig            0      0.00%    100.00% # Class of committed instruction (Count)
system.cpu.commit.committedInstType_0::total      2573877                       # Class of committed instruction (Count)
system.cpu.commit.commitEligibleSamples       1175327                       # number cycles where commit BW limit reached (Cycle)
system.cpu.commitStats0.numInsts              1390852                       # Number of instructions committed (thread level) (Count)
system.cpu.commitStats0.numOps                2573877                       # Number of ops (including micro ops) committed (thread level) (Count)
system.cpu.commitStats0.numInstsNotNOP        1390852                       # Number of instructions committed excluding NOPs or prefetches (Count)
system.cpu.commitStats0.numOpsNotNOP          2573877                       # Number of Ops (including micro ops) Simulated (Count)
system.cpu.commitStats0.cpi                  1.810707                       # CPI: cycles per instruction (thread level) ((Cycle/Count))
system.cpu.commitStats0.ipc                  0.552270                       # IPC: instructions per cycle (thread level) ((Count/Cycle))
system.cpu.commitStats0.numMemRefs             639804                       # Number of memory references committed (Count)
system.cpu.commitStats0.numFpInsts             906538                       # Number of float instructions (Count)
system.cpu.commitStats0.numIntInsts           2267883                       # Number of integer instructions (Count)
system.cpu.commitStats0.numLoadInsts           226228                       # Number of load instructions (Count)
system.cpu.commitStats0.numStoreInsts          413576                       # Number of store instructions (Count)
system.cpu.commitStats0.numVecInsts                 0                       # Number of vector instructions (Count)
system.cpu.commitStats0.committedInstType::No_OpClass         1391      0.05%      0.05% # Class of committed instruction. (Count)
system.cpu.commitStats0.committedInstType::IntAlu      1626518     63.19%     63.25% # Class of committed instruction. (Count)
system.cpu.commitStats0.committedInstType::IntMult          724      0.03%     63.28% # Class of committed instruction. (Count)
system.cpu.commitStats0.committedInstType::IntDiv         1493      0.06%     63.33% # Class of committed instruction. (Count)
system.cpu.commitStats0.committedInstType::FloatAdd       100412      3.90%     67.23% # Class of committed instruction. (Count)
system.cpu.commitStats0.committedInstType::FloatCmp            0      0.00%     67.23% # Class of committed instruction. (Count)
system.cpu.commitStats0.committedInstType::FloatCvt            0      0.00%     67.23% # Class of committed instruction. (Count)
system.cpu.commitStats0.committedInstType::FloatMult            0      0.00%     67.23% # Class of committed instruction. (Count)
system.cpu.commitStats0.committedInstType::FloatMultAcc            0      0.00%     67.23% # Class of committed instruction. (Count)
system.cpu.commitStats0.committedInstType::FloatDiv            0      0.00%     67.23% # Class of committed instruction. (Count)
system.cpu.commitStats0.committedInstType::FloatMisc            0      0.00%     67.23% # Class of committed instruction. (Count)
system.cpu.commitStats0.committedInstType::FloatSqrt            0      0.00%     67.23% # Class of committed instruction. (Count)
system.cpu.commitStats0.committedInstType::SimdAdd          424      0.02%     67.25% # Class of committed instruction. (Count)
system.cpu.commitStats0.committedInstType::SimdAddAcc            0      0.00%     67.25% # Class of committed instruction. (Count)
system.cpu.commitStats0.committedInstType::SimdAlu          919      0.04%     67.29% # Class of committed instruction. (Count)
system.cpu.commitStats0.committedInstType::SimdCmp            2      0.00%     67.29% # Class of committed instruction. (Count)
system.cpu.commitStats0.committedInstType::SimdCvt          970      0.04%     67.32% # Class of committed instruction. (Count)
system.cpu.commitStats0.committedInstType::SimdMisc         1017      0.04%     67.36% # Class of committed instruction. (Count)
system.cpu.commitStats0.committedInstType::SimdMult            0      0.00%     67.36% # Class of committed instruction. (Count)
system.cpu.commitStats0.committedInstType::SimdMultAcc            0      0.00%     67.36% # Class of committed instruction. (Count)
system.cpu.commitStats0.committedInstType::SimdMatMultAcc            0      0.00%     67.36% # Class of committed instruction. (Count)
system.cpu.commitStats0.committedInstType::SimdShift          201      0.01%     67.37% # Class of committed instruction. (Count)
system.cpu.commitStats0.committedInstType::SimdShiftAcc            0      0.00%     67.37% # Class of committed instruction. (Count)
system.cpu.commitStats0.committedInstType::SimdDiv            0      0.00%     67.37% # Class of committed instruction. (Count)
system.cpu.commitStats0.committedInstType::SimdSqrt            0      0.00%     67.37% # Class of committed instruction. (Count)
system.cpu.commitStats0.committedInstType::SimdFloatAdd       100000      3.89%     71.26% # Class of committed instruction. (Count)
system.cpu.commitStats0.committedInstType::SimdFloatAlu            0      0.00%     71.26% # Class of committed instruction. (Count)
system.cpu.commitStats0.committedInstType::SimdFloatCmp            0      0.00%     71.26% # Class of committed instruction. (Count)
system.cpu.commitStats0.committedInstType::SimdFloatCvt            2      0.00%     71.26% # Class of committed instruction. (Count)
system.cpu.commitStats0.committedInstType::SimdFloatDiv            0      0.00%     71.26% # Class of committed instruction. (Count)
system.cpu.commitStats0.committedInstType::SimdFloatMisc            0      0.00%     71.26% # Class of committed instruction. (Count)
system.cpu.commitStats0.committedInstType::SimdFloatMult       100000      3.89%     75.14% # Class of committed instruction. (Count)
system.cpu.commitStats0.committedInstType::SimdFloatMultAcc            0      0.00%     75.14% # Class of committed instruction. (Count)
system.cpu.commitStats0.committedInstType::SimdFloatMatMultAcc            0      0.00%     75.14% # Class of committed instruction. (Count)
system.cpu.commitStats0.committedInstType::SimdFloatSqrt            0      0.00%     75.14% # Class of committed instruction. (Count)
system.cpu.commitStats0.committedInstType::SimdReduceAdd            0      0.00%     75.14% # Class of committed instruction. (Count)
system.cpu.commitStats0.committedInstType::SimdReduceAlu            0      0.00%     75.14% # Class of committed instruction. (Count)
system.cpu.commitStats0.committedInstType::SimdReduceCmp            0      0.00%     75.14% # Class of committed instruction. (Count)
system.cpu.commitStats0.committedInstType::SimdFloatReduceAdd            0      0.00%     75.14% # Class of committed instruction. (Count)
system.cpu.commitStats0.committedInstType::SimdFloatReduceCmp            0      0.00%     75.14% # Class of committed instruction. (Count)
system.cpu.commitStats0.committedInstType::SimdAes            0      0.00%     75.14% # Class of committed instruction. (Count)
system.cpu.commitStats0.committedInstType::SimdAesMix            0      0.00%     75.14% # Class of committed instruction. (Count)
system.cpu.commitStats0.committedInstType::SimdSha1Hash            0      0.00%     75.14% # Class of committed instruction. (Count)
system.cpu.commitStats0.committedInstType::SimdSha1Hash2            0      0.00%     75.14% # Class of committed instruction. (Count)
system.cpu.commitStats0.committedInstType::SimdSha256Hash            0      0.00%     75.14% # Class of committed instruction. (Count)
system.cpu.commitStats0.committedInstType::SimdSha256Hash2            0      0.00%     75.14% # Class of committed instruction. (Count)
system.cpu.commitStats0.committedInstType::SimdShaSigma2            0      0.00%     75.14% # Class of committed instruction. (Count)
system.cpu.commitStats0.committedInstType::SimdShaSigma3            0      0.00%     75.14% # Class of committed instruction. (Count)
system.cpu.commitStats0.committedInstType::SimdPredAlu            0      0.00%     75.14% # Class of committed instruction. (Count)
system.cpu.commitStats0.committedInstType::Matrix            0      0.00%     75.14% # Class of committed instruction. (Count)
system.cpu.commitStats0.committedInstType::MatrixMov            0      0.00%     75.14% # Class of committed instruction. (Count)
system.cpu.commitStats0.committedInstType::MatrixOP            0      0.00%     75.14% # Class of committed instruction. (Count)
system.cpu.commitStats0.committedInstType::MemRead        25158      0.98%     76.12% # Class of committed instruction. (Count)
system.cpu.commitStats0.committedInstType::MemWrite        12418      0.48%     76.60% # Class of committed instruction. (Count)
system.cpu.commitStats0.committedInstType::FloatMemRead       201070      7.81%     84.41% # Class of committed instruction. (Count)
system.cpu.commitStats0.committedInstType::FloatMemWrite       401158     15.59%    100.00% # Class of committed instruction. (Count)
system.cpu.commitStats0.committedInstType::IprAccess            0      0.00%    100.00% # Class of committed instruction. (Count)
system.cpu.commitStats0.committedInstType::InstPrefetch            0      0.00%    100.00% # Class of committed instruction. (Count)
system.cpu.commitStats0.committedInstType::VectorUnitStrideLoad            0      0.00%    100.00% # Class of committed instruction. (Count)
system.cpu.commitStats0.committedInstType::VectorUnitStrideStore            0      0.00%    100.00% # Class of committed instruction. (Count)
system.cpu.commitStats0.committedInstType::VectorUnitStrideMaskLoad            0      0.00%    100.00% # Class of committed instruction. (Count)
system.cpu.commitStats0.committedInstType::VectorUnitStrideMaskStore            0      0.00%    100.00% # Class of committed instruction. (Count)
system.cpu.commitStats0.committedInstType::VectorStridedLoad            0      0.00%    100.00% # Class of committed instruction. (Count)
system.cpu.commitStats0.committedInstType::VectorStridedStore            0      0.00%    100.00% # Class of committed instruction. (Count)
system.cpu.commitStats0.committedInstType::VectorIndexedLoad            0      0.00%    100.00% # Class of committed instruction. (Count)
system.cpu.commitStats0.committedInstType::VectorIndexedStore            0      0.00%    100.00% # Class of committed instruction. (Count)
system.cpu.commitStats0.committedInstType::VectorUnitStrideFaultOnlyFirstLoad            0      0.00%    100.00% # Class of committed instruction. (Count)
system.cpu.commitStats0.committedInstType::VectorWholeRegisterLoad            0      0.00%    100.00% # Class of committed instruction. (Count)
system.cpu.commitStats0.committedInstType::VectorWholeRegisterStore            0      0.00%    100.00% # Class of committed instruction. (Count)
system.cpu.commitStats0.committedInstType::VectorIntegerArith            0      0.00%    100.00% # Class of committed instruction. (Count)
system.cpu.commitStats0.committedInstType::VectorFloatArith            0      0.00%    100.00% # Class of committed instruction. (Count)
system.cpu.commitStats0.committedInstType::VectorFloatConvert            0      0.00%    100.00% # Class of committed instruction. (Count)
system.cpu.commitStats0.committedInstType::VectorIntegerReduce            0      0.00%    100.00% # Class of committed instruction. (Count)
system.cpu.commitStats0.committedInstType::VectorFloatReduce            0      0.00%    100.00% # Class of committed instruction. (Count)
system.cpu.commitStats0.committedInstType::VectorMisc            0      0.00%    100.00% # Class of committed instruction. (Count)
system.cpu.commitStats0.committedInstType::VectorIntegerExtension            0      0.00%    100.00% # Class of committed instruction. (Count)
system.cpu.commitStats0.committedInstType::VectorConfig            0      0.00%    100.00% # Class of committed instruction. (Count)
system.cpu.commitStats0.committedInstType::total      2573877                       # Class of committed instruction. (Count)
system.cpu.commitStats0.committedControl::IsControl       233583                       # Class of control type instructions committed (Count)
system.cpu.commitStats0.committedControl::IsDirectControl       232276                       # Class of control type instructions committed (Count)
system.cpu.commitStats0.committedControl::IsIndirectControl         1271                       # Class of control type instructions committed (Count)
system.cpu.commitStats0.committedControl::IsCondControl       230689                       # Class of control type instructions committed (Count)
system.cpu.commitStats0.committedControl::IsUncondControl         2858                       # Class of control type instructions committed (Count)
system.cpu.commitStats0.committedControl::IsCall          934                       # Class of control type instructions committed (Count)
system.cpu.commitStats0.committedControl::IsReturn          929                       # Class of control type instructions committed (Count)
system.cpu.dcache.demandHits::cpu.data         529674                       # number of demand (read+write) hits (Count)
system.cpu.dcache.demandHits::total            529674                       # number of demand (read+write) hits (Count)
system.cpu.dcache.overallHits::cpu.data        529674                       # number of overall hits (Count)
system.cpu.dcache.overallHits::total           529674                       # number of overall hits (Count)
system.cpu.dcache.demandMisses::cpu.data       112274                       # number of demand (read+write) misses (Count)
system.cpu.dcache.demandMisses::total          112274                       # number of demand (read+write) misses (Count)
system.cpu.dcache.overallMisses::cpu.data       112274                       # number of overall misses (Count)
system.cpu.dcache.overallMisses::total         112274                       # number of overall misses (Count)
system.cpu.dcache.demandMissLatency::cpu.data   4136302000                       # number of demand (read+write) miss ticks (Tick)
system.cpu.dcache.demandMissLatency::total   4136302000                       # number of demand (read+write) miss ticks (Tick)
system.cpu.dcache.overallMissLatency::cpu.data   4136302000                       # number of overall miss ticks (Tick)
system.cpu.dcache.overallMissLatency::total   4136302000                       # number of overall miss ticks (Tick)
system.cpu.dcache.demandAccesses::cpu.data       641948                       # number of demand (read+write) accesses (Count)
system.cpu.dcache.demandAccesses::total        641948                       # number of demand (read+write) accesses (Count)
system.cpu.dcache.overallAccesses::cpu.data       641948                       # number of overall (read+write) accesses (Count)
system.cpu.dcache.overallAccesses::total       641948                       # number of overall (read+write) accesses (Count)
system.cpu.dcache.demandMissRate::cpu.data     0.174896                       # miss rate for demand accesses (Ratio)
system.cpu.dcache.demandMissRate::total      0.174896                       # miss rate for demand accesses (Ratio)
system.cpu.dcache.overallMissRate::cpu.data     0.174896                       # miss rate for overall accesses (Ratio)
system.cpu.dcache.overallMissRate::total     0.174896                       # miss rate for overall accesses (Ratio)
system.cpu.dcache.demandAvgMissLatency::cpu.data 36841.138643                       # average overall miss latency in ticks ((Tick/Count))
system.cpu.dcache.demandAvgMissLatency::total 36841.138643                       # average overall miss latency in ticks ((Tick/Count))
system.cpu.dcache.overallAvgMissLatency::cpu.data 36841.138643                       # average overall miss latency ((Tick/Count))
system.cpu.dcache.overallAvgMissLatency::total 36841.138643                       # average overall miss latency ((Tick/Count))
system.cpu.dcache.blockedCycles::no_mshrs         3075                       # number of cycles access was blocked (Cycle)
system.cpu.dcache.blockedCycles::no_targets            0                       # number of cycles access was blocked (Cycle)
system.cpu.dcache.blockedCauses::no_mshrs          169                       # number of times access was blocked (Count)
system.cpu.dcache.blockedCauses::no_targets            0                       # number of times access was blocked (Count)
system.cpu.dcache.avgBlocked::no_mshrs      18.195266                       # average number of cycles each access was blocked ((Cycle/Count))
system.cpu.dcache.avgBlocked::no_targets          nan                       # average number of cycles each access was blocked ((Cycle/Count))
system.cpu.dcache.writebacks::writebacks        50370                       # number of writebacks (Count)
system.cpu.dcache.writebacks::total             50370                       # number of writebacks (Count)
[...]
system.mem_ctrl.dram.bwRead::cpu.inst         9707655                       # Total read bandwidth from this memory ((Byte/Second))
system.mem_ctrl.dram.bwRead::cpu.data        70062837                       # Total read bandwidth from this memory ((Byte/Second))
system.mem_ctrl.dram.bwRead::cpu.dcache.prefetcher    277633839                       # Total read bandwidth from this memory ((Byte/Second))
system.mem_ctrl.dram.bwRead::cpu.icache.prefetcher     23150977                       # Total read bandwidth from this memory ((Byte/Second))
system.mem_ctrl.dram.bwRead::l2cache.prefetcher   1646108183                       # Total read bandwidth from this memory ((Byte/Second))
system.mem_ctrl.dram.bwRead::total         2026663490                       # Total read bandwidth from this memory ((Byte/Second))
system.mem_ctrl.dram.bwInstRead::cpu.inst      9707655                       # Instruction read bandwidth from this memory ((Byte/Second))
system.mem_ctrl.dram.bwInstRead::total        9707655                       # Instruction read bandwidth from this memory ((Byte/Second))
system.mem_ctrl.dram.bwWrite::writebacks   1230889941                       # Write bandwidth from this memory ((Byte/Second))
system.mem_ctrl.dram.bwWrite::total        1230889941                       # Write bandwidth from this memory ((Byte/Second))
system.mem_ctrl.dram.bwTotal::writebacks   1230889941                       # Total bandwidth to/from this memory ((Byte/Second))
system.mem_ctrl.dram.bwTotal::cpu.inst        9707655                       # Total bandwidth to/from this memory ((Byte/Second))
system.mem_ctrl.dram.bwTotal::cpu.data       70062837                       # Total bandwidth to/from this memory ((Byte/Second))
system.mem_ctrl.dram.bwTotal::cpu.dcache.prefetcher    277633839                       # Total bandwidth to/from this memory ((Byte/Second))
system.mem_ctrl.dram.bwTotal::cpu.icache.prefetcher     23150977                       # Total bandwidth to/from this memory ((Byte/Second))
system.mem_ctrl.dram.bwTotal::l2cache.prefetcher   1646108183                       # Total bandwidth to/from this memory ((Byte/Second))
system.mem_ctrl.dram.bwTotal::total        3257553431                       # Total bandwidth to/from this memory ((Byte/Second))
system.mem_ctrl.dram.readBursts                 79751                       # Number of DRAM read bursts (Count)
system.mem_ctrl.dram.writeBursts                48410                       # Number of DRAM write bursts (Count)
system.mem_ctrl.dram.perBankRdBursts::0          5194                       # Per bank write bursts (Count)
system.mem_ctrl.dram.perBankRdBursts::1          5099                       # Per bank write bursts (Count)
system.mem_ctrl.dram.perBankRdBursts::2          4985                       # Per bank write bursts (Count)
system.mem_ctrl.dram.perBankRdBursts::3          5082                       # Per bank write bursts (Count)
system.mem_ctrl.dram.perBankRdBursts::4          4923                       # Per bank write bursts (Count)
system.mem_ctrl.dram.perBankRdBursts::5          5079                       # Per bank write bursts (Count)
system.mem_ctrl.dram.perBankRdBursts::6          5053                       # Per bank write bursts (Count)
system.mem_ctrl.dram.perBankRdBursts::7          4905                       # Per bank write bursts (Count)
system.mem_ctrl.dram.perBankRdBursts::8          4917                       # Per bank write bursts (Count)
system.mem_ctrl.dram.perBankRdBursts::9          4812                       # Per bank write bursts (Count)
system.mem_ctrl.dram.perBankRdBursts::10         4792                       # Per bank write bursts (Count)
system.mem_ctrl.dram.perBankRdBursts::11         4889                       # Per bank write bursts (Count)
system.mem_ctrl.dram.perBankRdBursts::12         4948                       # Per bank write bursts (Count)
system.mem_ctrl.dram.perBankRdBursts::13         4917                       # Per bank write bursts (Count)
system.mem_ctrl.dram.perBankRdBursts::14         4993                       # Per bank write bursts (Count)
system.mem_ctrl.dram.perBankRdBursts::15         5163                       # Per bank write bursts (Count)
system.mem_ctrl.dram.perBankWrBursts::0          3192                       # Per bank write bursts (Count)
system.mem_ctrl.dram.perBankWrBursts::1          3094                       # Per bank write bursts (Count)
system.mem_ctrl.dram.perBankWrBursts::2          3030                       # Per bank write bursts (Count)
system.mem_ctrl.dram.perBankWrBursts::3          3006                       # Per bank write bursts (Count)
system.mem_ctrl.dram.perBankWrBursts::4          2946                       # Per bank write bursts (Count)
system.mem_ctrl.dram.perBankWrBursts::5          3126                       # Per bank write bursts (Count)
system.mem_ctrl.dram.perBankWrBursts::6          3011                       # Per bank write bursts (Count)
system.mem_ctrl.dram.perBankWrBursts::7          2944                       # Per bank write bursts (Count)
system.mem_ctrl.dram.perBankWrBursts::8          2951                       # Per bank write bursts (Count)
system.mem_ctrl.dram.perBankWrBursts::9          2993                       # Per bank write bursts (Count)
system.mem_ctrl.dram.perBankWrBursts::10         2958                       # Per bank write bursts (Count)
system.mem_ctrl.dram.perBankWrBursts::11         3079                       # Per bank write bursts (Count)
system.mem_ctrl.dram.perBankWrBursts::12         3001                       # Per bank write bursts (Count)
system.mem_ctrl.dram.perBankWrBursts::13         2955                       # Per bank write bursts (Count)
system.mem_ctrl.dram.perBankWrBursts::14         3012                       # Per bank write bursts (Count)
system.mem_ctrl.dram.perBankWrBursts::15         3112                       # Per bank write bursts (Count)
system.mem_ctrl.dram.totQLat               1034115265                       # Total ticks spent queuing (Tick)
system.mem_ctrl.dram.totBusLat              398755000                       # Total ticks spent in databus transfers (Tick)
system.mem_ctrl.dram.totMemAccLat          2529446515                       # Total ticks spent from burst creation until serviced by the DRAM (Tick)
system.mem_ctrl.dram.avgQLat                 12966.80                       # Average queueing delay per DRAM burst ((Tick/Count))
system.mem_ctrl.dram.avgBusLat                5000.00                       # Average bus latency per DRAM burst ((Tick/Count))
system.mem_ctrl.dram.avgMemAccLat            31716.80                       # Average memory access latency per DRAM burst ((Tick/Count))
system.mem_ctrl.dram.readRowHits                73321                       # Number of row buffer hits during reads (Count)
system.mem_ctrl.dram.writeRowHits               44758                       # Number of row buffer hits during writes (Count)
system.mem_ctrl.dram.readRowHitRate             91.94                       # Row buffer hit rate for reads (Ratio)
system.mem_ctrl.dram.writeRowHitRate            92.46                       # Row buffer hit rate for writes (Ratio)
system.mem_ctrl.dram.bytesPerActivate::samples        10070                       # Bytes accessed per row activation (Byte)
system.mem_ctrl.dram.bytesPerActivate::mean   814.109235                       # Bytes accessed per row activation (Byte)
system.mem_ctrl.dram.bytesPerActivate::gmean   691.273351                       # Bytes accessed per row activation (Byte)
system.mem_ctrl.dram.bytesPerActivate::stdev   320.206563                       # Bytes accessed per row activation (Byte)
system.mem_ctrl.dram.bytesPerActivate::0-127          364      3.61%      3.61% # Bytes accessed per row activation (Byte)
system.mem_ctrl.dram.bytesPerActivate::128-255          574      5.70%      9.31% # Bytes accessed per row activation (Byte)
system.mem_ctrl.dram.bytesPerActivate::256-383          751      7.46%     16.77% # Bytes accessed per row activation (Byte)
system.mem_ctrl.dram.bytesPerActivate::384-511          325      3.23%     20.00% # Bytes accessed per row activation (Byte)
system.mem_ctrl.dram.bytesPerActivate::512-639          392      3.89%     23.89% # Bytes accessed per row activation (Byte)
system.mem_ctrl.dram.bytesPerActivate::640-767          508      5.04%     28.94% # Bytes accessed per row activation (Byte)
system.mem_ctrl.dram.bytesPerActivate::768-895          509      5.05%     33.99% # Bytes accessed per row activation (Byte)
system.mem_ctrl.dram.bytesPerActivate::896-1023          418      4.15%     38.14% # Bytes accessed per row activation (Byte)
system.mem_ctrl.dram.bytesPerActivate::1024-1151         6229     61.86%    100.00% # Bytes accessed per row activation (Byte)
system.mem_ctrl.dram.bytesPerActivate::total        10070                       # Bytes accessed per row activation (Byte)
system.mem_ctrl.dram.dramBytesRead            5104064                       # Total bytes read (Byte)
system.mem_ctrl.dram.dramBytesWritten         3098240                       # Total bytes written (Byte)
system.mem_ctrl.dram.avgRdBW              2026.688903                       # Average DRAM read bandwidth in MiBytes/s ((Byte/Second))
system.mem_ctrl.dram.avgWrBW              1230.229211                       # Average DRAM write bandwidth in MiBytes/s ((Byte/Second))
system.mem_ctrl.dram.peakBW                  12800.00                       # Theoretical peak bandwidth in MiByte/s ((Byte/Second))
system.mem_ctrl.dram.busUtil                    25.44                       # Data bus utilization in percentage (Ratio)
system.mem_ctrl.dram.busUtilRead                15.83                       # Data bus utilization in percentage for reads (Ratio)
system.mem_ctrl.dram.busUtilWrite                9.61                       # Data bus utilization in percentage for writes (Ratio)
system.mem_ctrl.dram.pageHitRate                92.13                       # Row buffer hit rate, read and write combined (Ratio)
system.mem_ctrl.dram.power_state.pwrStateResidencyTicks::UNDEFINED   2518425000                       # Cumulative time (in ticks) in various power states (Tick)
system.mem_ctrl.dram.rank0.actEnergy         36835260                       # Energy for activate commands per rank (pJ) (Joule)
system.mem_ctrl.dram.rank0.preEnergy         19551840                       # Energy for precharge commands per rank (pJ) (Joule)
system.mem_ctrl.dram.rank0.readEnergy       287884800                       # Energy for read commands per rank (pJ) (Joule)
system.mem_ctrl.dram.rank0.writeEnergy      127101780                       # Energy for write commands per rank (pJ) (Joule)
system.mem_ctrl.dram.rank0.refreshEnergy 198528720.000000                       # Energy for refresh commands per rank (pJ) (Joule)
system.mem_ctrl.dram.rank0.actBackEnergy    769715460                       # Energy for active background per rank (pJ) (Joule)
system.mem_ctrl.dram.rank0.preBackEnergy    318893760                       # Energy for precharge background per rank (pJ) (Joule)
system.mem_ctrl.dram.rank0.actPowerDownEnergy            0                       # Energy for active power-down per rank (pJ) (Joule)
system.mem_ctrl.dram.rank0.prePowerDownEnergy            0                       # Energy for precharge power-down per rank (pJ) (Joule)
system.mem_ctrl.dram.rank0.selfRefreshEnergy            0                       # Energy for self refresh per rank (pJ) (Joule)
system.mem_ctrl.dram.rank0.totalEnergy     1758511620                       # Total energy per rank (pJ) (Joule)
system.mem_ctrl.dram.rank0.averagePower    698.258483                       # Core power per rank (mW) (Watt)
system.mem_ctrl.dram.rank0.totalIdleTime            0                       # Total Idle time Per DRAM Rank (Tick)
system.mem_ctrl.dram.rank0.pwrStateTime::IDLE    810873048                       # Time in different power states (Tick)
system.mem_ctrl.dram.rank0.pwrStateTime::REF     83980000                       # Time in different power states (Tick)
system.mem_ctrl.dram.rank0.pwrStateTime::SREF            0                       # Time in different power states (Tick)
system.mem_ctrl.dram.rank0.pwrStateTime::PRE_PDN            0                       # Time in different power states (Tick)
system.mem_ctrl.dram.rank0.pwrStateTime::ACT   1623571952                       # Time in different power states (Tick)
system.mem_ctrl.dram.rank0.pwrStateTime::ACT_PDN            0                       # Time in different power states (Tick)
system.mem_ctrl.dram.rank1.actEnergy         35150220                       # Energy for activate commands per rank (pJ) (Joule)
system.mem_ctrl.dram.rank1.preEnergy         18663810                       # Energy for precharge commands per rank (pJ) (Joule)
system.mem_ctrl.dram.rank1.readEnergy       281537340                       # Energy for read commands per rank (pJ) (Joule)
system.mem_ctrl.dram.rank1.writeEnergy      125598420                       # Energy for write commands per rank (pJ) (Joule)
system.mem_ctrl.dram.rank1.refreshEnergy 198528720.000000                       # Energy for refresh commands per rank (pJ) (Joule)
system.mem_ctrl.dram.rank1.actBackEnergy    764657850                       # Energy for active background per rank (pJ) (Joule)
system.mem_ctrl.dram.rank1.preBackEnergy    323152800                       # Energy for precharge background per rank (pJ) (Joule)
system.mem_ctrl.dram.rank1.actPowerDownEnergy            0                       # Energy for active power-down per rank (pJ) (Joule)
system.mem_ctrl.dram.rank1.prePowerDownEnergy            0                       # Energy for precharge power-down per rank (pJ) (Joule)
system.mem_ctrl.dram.rank1.selfRefreshEnergy            0                       # Energy for self refresh per rank (pJ) (Joule)
system.mem_ctrl.dram.rank1.totalEnergy     1747289160                       # Total energy per rank (pJ) (Joule)
system.mem_ctrl.dram.rank1.averagePower    693.802341                       # Core power per rank (mW) (Watt)
system.mem_ctrl.dram.rank1.totalIdleTime            0                       # Total Idle time Per DRAM Rank (Tick)
system.mem_ctrl.dram.rank1.pwrStateTime::IDLE    821524282                       # Time in different power states (Tick)
system.mem_ctrl.dram.rank1.pwrStateTime::REF     83980000                       # Time in different power states (Tick)
system.mem_ctrl.dram.rank1.pwrStateTime::SREF            0                       # Time in different power states (Tick)
system.mem_ctrl.dram.rank1.pwrStateTime::PRE_PDN            0                       # Time in different power states (Tick)
system.mem_ctrl.dram.rank1.pwrStateTime::ACT   1612920718                       # Time in different power states (Tick)
system.mem_ctrl.dram.rank1.pwrStateTime::ACT_PDN            0                       # Time in different power states (Tick)
system.mem_ctrl.power_state.pwrStateResidencyTicks::UNDEFINED   2518425000                       # Cumulative time (in ticks) in various power states (Tick)
system.membus.transDist::ReadResp               78787                       # Transaction distribution (Count)
system.membus.transDist::WritebackDirty         48436                       # Transaction distribution (Count)
system.membus.transDist::CleanEvict             22483                       # Transaction distribution (Count)
system.membus.transDist::ReadExReq                962                       # Transaction distribution (Count)
system.membus.transDist::ReadExResp               962                       # Transaction distribution (Count)
system.membus.transDist::ReadSharedReq          78789                       # Transaction distribution (Count)
system.membus.pktCount_system.l2cache.mem_side_port::system.mem_ctrl.port       230419                       # Packet count per connected requestor and responder (Count)
system.membus.pktCount_system.l2cache.mem_side_port::total       230419                       # Packet count per connected requestor and responder (Count)
system.membus.pktCount::total                  230419                       # Packet count per connected requestor and responder (Count)
system.membus.pktSize_system.l2cache.mem_side_port::system.mem_ctrl.port      8203840                       # Cumulative packet size per connected requestor and responder (Byte)
system.membus.pktSize_system.l2cache.mem_side_port::total      8203840                       # Cumulative packet size per connected requestor and responder (Byte)
system.membus.pktSize::total                  8203840                       # Cumulative packet size per connected requestor and responder (Byte)
system.membus.snoops                                0                       # Total snoops (Count)
system.membus.snoopTraffic                          0                       # Total snoop traffic (Byte)
system.membus.snoopFanout::samples              79751                       # Request fanout histogram (Count)
system.membus.snoopFanout::mean                     0                       # Request fanout histogram (Count)
system.membus.snoopFanout::stdev                    0                       # Request fanout histogram (Count)
system.membus.snoopFanout::underflows               0      0.00%      0.00% # Request fanout histogram (Count)
system.membus.snoopFanout::0                    79751    100.00%    100.00% # Request fanout histogram (Count)
system.membus.snoopFanout::1                        0      0.00%    100.00% # Request fanout histogram (Count)
system.membus.snoopFanout::overflows                0      0.00%    100.00% # Request fanout histogram (Count)
system.membus.snoopFanout::min_value                0                       # Request fanout histogram (Count)
system.membus.snoopFanout::max_value                0                       # Request fanout histogram (Count)
system.membus.snoopFanout::total                79751                       # Request fanout histogram (Count)
system.membus.power_state.pwrStateResidencyTicks::UNDEFINED   2518425000                       # Cumulative time (in ticks) in various power states (Tick)
system.membus.reqLayer2.occupancy           394461243                       # Layer occupancy (ticks) (Tick)
system.membus.reqLayer2.utilization               0.2                       # Layer utilization (Ratio)
system.membus.respLayer0.occupancy          418214713                       # Layer occupancy (ticks) (Tick)
system.membus.respLayer0.utilization              0.2                       # Layer utilization (Ratio)
system.membus.snoop_filter.totRequests         150670                       # Total number of requests made to the snoop filter. (Count)
system.membus.snoop_filter.hitSingleRequests        70928                       # Number of requests hitting in the snoop filter with a single holder of the requested data. (Count)
system.membus.snoop_filter.hitMultiRequests            0                       # Number of requests hitting in the snoop filter with multiple (>1) holders of the requested data. (Count)
system.membus.snoop_filter.totSnoops                0                       # Total number of snoops made to the snoop filter. (Count)
system.membus.snoop_filter.hitSingleSnoops            0                       # Number of snoops hitting in the snoop filter with a single holder of the requested data. (Count)
system.membus.snoop_filter.hitMultiSnoops            0                       # Number of snoops hitting in the snoop filter with multiple (>1) holders of the requested data. (Count)
system.workload.inst.arm                            0                       # number of arm instructions executed (Count)
system.workload.inst.quiesce                        0                       # number of quiesce instructions executed (Count)

---------- End Simulation Statistics   ----------
