Global frequency set at 1000000000000 ticks per second
gem5 Simulator System.  https://www.gem5.org
gem5 is copyrighted software; use the --copyright option for details.

gem5 version 23.1.0.0
gem5 compiled Sep 30 2025 15:11:21
gem5 started Oct  2 2025 17:37:40
gem5 executing on chirag, pid 4419
command line: /home/chira/gem5/build/X86/gem5.opt --outdir=results/experiments/stream_rob128_bpTournamentBP_l1d16kB_l2256kB_iw4_cw2 configs/run_custom.py --cmd=./benchmarks/stream --options=--options=100000 --cpu-type=DerivO3CPU --rob-size=128 --bp-type=TournamentBP --l1d-size=16kB --l1i-size=32kB --l2-size=256kB --issue-width=4 --commit-width=2 --max-insts=5000000

Beginning simulation with:
  cmd = ./benchmarks/stream options='--options=100000'
  ROB=128 issue=4 commit=2 L1d=16kB L1i=32kB L2=256kB BP=TournamentBP
Exiting @ tick 5000000 because simulate() limit reached
warn: No dot file generated. Please install pydot to generate the dot file and pdf.
src/mem/dram_interface.cc:690: warn: DRAM device capacity (8192 Mbytes) does not match the address range assigned (512 Mbytes)
src/base/statistics.hh:279: warn: One of the stats is a legacy stat. Legacy stat is a stat that does not belong to any statistics::Group. Legacy stat is deprecated.
system.remote_gdb: Listening for connections on port 7000
src/sim/simulate.cc:199: info: Entering event queue @ 0.  Starting simulation...
